16

N       0.647517   -0.319263    0.491370
C      -0.217007    0.206028   -0.409664
O       0.067337    1.061718   -1.225247
C      -1.652756   -0.343492   -0.329518
C      -2.196456   -0.773423   -1.704721
C      -1.904889   -2.276444   -1.715053
C      -1.840747   -2.655200   -0.240899
O      -1.860131   -3.736319    0.264612
O      -1.731060   -1.509796    0.510214
H       1.588331    0.036807    0.524665
H       0.341302   -1.003654    1.161820
H      -2.266491    0.432984    0.135050
H      -3.272381   -0.588501   -1.754218
H      -1.709992   -0.209270   -2.499759
H      -2.648411   -2.888263   -2.226847
H      -0.929358   -2.507178   -2.158190
