17

C      -0.106036    1.546973    0.153649
C       0.081241    0.068016   -0.091122
O       1.158972   -0.450166   -0.264816
C      -1.207718   -0.773370   -0.061030
O      -2.293996   -0.086911   -0.627343
C      -1.003893   -2.263823   -0.476856
N      -1.097537   -2.596217    0.961225
C      -1.503443   -1.340164    1.339778
N      -2.029312   -0.744579    2.325556
H       0.866489    2.036199    0.212102
H      -0.705896    1.983562   -0.649902
H      -0.665352    1.695162    1.084592
H      -2.898481    0.123188    0.096665
H      -1.838832   -2.632119   -1.079138
H      -0.038972   -2.500502   -0.925129
H      -1.316602   -3.481814    1.392698
H      -2.236146   -1.367151    3.107117
