19

C      -0.009695    1.512493    0.030333
C      -0.003625    0.018307    0.009214
C       0.856339   -0.961337   -0.778598
C       0.895880   -0.966826    0.747855
C      -0.270836   -2.016290    0.747264
O      -0.574577   -3.069025    1.570422
C      -1.171994   -1.017901    0.024074
C      -0.297694   -2.012995   -0.764434
C      -0.700335   -3.080119   -1.727044
H       1.014202    1.902334    0.013708
H      -0.536862    1.925103   -0.838069
H      -0.497845    1.900059    0.932659
H       1.659682   -0.774660   -1.481612
H       1.729026   -0.773979    1.412344
H      -0.990155   -2.723839    2.369396
H      -2.250235   -0.915413    0.019569
H      -0.982715   -2.661434   -2.700125
H       0.112668   -3.796855   -1.892738
H      -1.558511   -3.638743   -1.339055
