12

N      -0.118397    1.485555   -0.201454
C      -0.048160    0.086056   -0.028392
C      -0.374538   -0.874108   -1.186404
C      -1.129390   -0.973407    0.084371
O      -0.337612   -1.732708    1.039000
C       0.633934   -0.732240    1.054070
O       1.571061   -0.643689    1.777567
H      -0.160413    1.969622    0.689194
H       0.687175    1.837508   -0.708259
H      -0.878631   -0.368630   -2.004607
H       0.313357   -1.665441   -1.465698
H      -2.191928   -0.898319    0.261390
