19

C      -0.157666    1.610285    0.028268
C      -0.109300    0.103367   -0.011469
C       0.173772   -0.541742   -1.168039
C       0.215531   -1.952230   -1.523117
C      -0.274591   -3.002168   -0.846845
C      -0.914599   -2.940958    0.508846
C      -0.164982   -2.040495    1.501304
C      -0.365369   -0.543127    1.305743
O      -0.688133    0.146979    2.257014
H       0.547947    2.006437    0.765901
H       0.071385    2.040079   -0.949672
H      -1.146591    1.957600    0.344147
H       0.390718    0.108501   -2.014875
H       0.642290   -2.147201   -2.504030
H      -0.219512   -3.979795   -1.318846
H      -1.957795   -2.600458    0.412808
H      -0.970768   -3.951138    0.926498
H      -0.479615   -2.251040    2.526244
H       0.910754   -2.253830    1.434457
