21

C      -0.162321    1.494139    0.014773
C       0.043144   -0.005942    0.057853
O      -1.221470   -0.638232    0.013368
C      -1.145738   -1.879838    0.706280
C      -0.160589   -1.637637    1.862390
C       0.840293   -0.656141    1.243428
C       1.858537   -1.259250    0.232928
C       1.100613   -0.588472   -0.949917
O       0.514508   -1.440427   -1.906624
H       0.795390    2.022706    0.049039
H      -0.679590    1.778684   -0.907288
H      -0.771255    1.820610    0.863300
H      -2.155221   -2.138620    1.037450
H      -0.785576   -2.669006    0.032582
H      -0.678695   -1.168626    2.705018
H       0.306031   -2.560097    2.220974
H       1.269401    0.035009    1.970752
H       2.893087   -0.932948    0.365555
H       1.839618   -2.352410    0.182354
H       1.684897    0.206999   -1.434864
H       1.223096   -1.824869   -2.432896
