17

C      -0.072599    1.496258   -0.013664
C       0.029383   -0.011214    0.039105
C       1.367881   -0.703711   -0.157785
C       0.699823   -0.707199    1.192123
O       1.245283    0.112157    2.203290
C       0.095196   -1.973975    1.760009
O       1.021642   -2.687023    2.565016
H       0.772668    1.960607    0.499443
H      -0.088764    1.852400   -1.049204
H      -0.987721    1.846496    0.475838
H      -0.829793   -0.537012   -0.372425
H       1.411884   -1.629381   -0.721935
H       2.235124   -0.060539   -0.275376
H       2.174972   -0.121620    2.289096
H      -0.807741   -1.717384    2.336479
H      -0.204454   -2.647365    0.950934
H       1.212346   -2.114169    3.315756
