14

C       0.059668   -3.762615   -0.018432
C       0.042323   -2.553547   -0.011635
C       0.023575   -1.196321   -0.004009
C      -0.003752    0.017972    0.002986
C      -0.006514    1.425001    0.010664
C      -1.127611    2.243620    0.029999
N      -0.698936    3.537051    0.031332
C       0.676179    3.581797    0.013317
C       1.137929    2.292745    0.000162
H       0.074109   -4.823739   -0.024401
H      -2.174454    1.989657    0.042529
H      -1.302386    4.340714    0.043719
H       1.200880    4.523152    0.011459
H       2.168388    1.976525   -0.015251
