17

O       0.062377    1.395387    0.075301
C       0.019419   -0.008435    0.036328
C      -1.366493   -0.623808   -0.319595
C      -1.509974   -0.085884   -1.761743
O      -0.148124   -0.053570   -2.266026
C       0.681482   -0.609805   -1.216196
C       0.327690   -2.093005   -1.123722
O       0.123084   -2.580950    0.211227
C      -1.012528   -2.099274   -0.516177
H       0.056453    1.705478   -0.838830
H       0.416588   -0.384833    0.975398
H      -2.192962   -0.385538    0.348671
H      -2.122581   -0.730694   -2.401374
H      -1.923855    0.927684   -1.786953
H       1.715897   -0.337137   -1.422142
H       0.672200   -2.813325   -1.858098
H      -1.773133   -2.838380   -0.750658
