18

C       0.052908    1.500461   -0.011303
C      -0.098037    0.014060    0.011966
C       0.012783   -0.849055    1.235396
C      -0.549854   -2.235617    0.966693
C       0.117279   -2.069179   -0.417653
C       0.652790   -3.201026   -1.238485
N       1.076320   -0.968114    0.203391
C      -0.619775   -0.888254   -1.056630
O      -1.136980   -0.709624   -2.124762
H       0.781037    1.829423    0.735426
H       0.388842    1.837213   -0.996078
H      -0.903880    1.986436    0.205912
H       0.220759   -0.388091    2.195878
H      -0.031524   -2.986060    1.570858
H      -1.630103   -2.406444    1.004824
H      -0.174329   -3.827629   -1.588900
H       1.185628   -2.825815   -2.116823
H       1.334974   -3.825709   -0.654477
