16

C      -0.092912    1.445839    0.010844
C      -0.011711   -0.005172    0.003070
C       0.068945   -1.210156   -0.003451
C       0.117857   -2.618570   -0.011302
C       1.189215   -3.432263   -0.022036
C       0.752232   -4.855613   -0.026963
O       1.431556   -5.860428   -0.036964
N      -0.628300   -4.800248   -0.017841
C      -1.150474   -3.458296   -0.008109
H       0.904003    1.899057    0.004148
H      -0.635139    1.815718   -0.866577
H      -0.619281    1.807057    0.901440
H       2.229994   -3.145213   -0.026778
H      -1.191241   -5.633096   -0.020310
H      -1.757880   -3.243493    0.882107
H      -1.768175   -3.234613   -0.889013
