18

N       0.193627    1.447453    0.214114
C       0.092219    0.018320    0.076145
C      -1.352765   -0.568369    0.091565
C      -2.538211    0.322515    0.441686
O      -3.739415   -0.269601   -0.025385
N      -1.258249   -0.838051   -1.369958
C       0.207937   -0.645716   -1.364929
C       0.724712    0.207455   -2.431386
N       1.148388    0.924716   -3.233276
H       1.165027    1.740574    0.208979
H      -0.260378    1.932042   -0.553943
H       0.766298   -0.444975    0.797700
H      -1.406169   -1.486580    0.691047
H      -2.632599    0.425805    1.526752
H      -2.402370    1.328474    0.023266
H      -3.669762   -0.288421   -0.987197
H      -1.555048   -1.760074   -1.668193
H       0.792896   -1.574065   -1.339544
