18

C       0.152404    1.540765    0.041835
C       0.110152    0.025907   -0.029130
O       0.551037   -0.483902    1.229294
C       0.522885   -1.868899    1.332312
C       1.547076   -2.521893    0.487090
N       2.354856   -3.021006   -0.172190
C       0.697976   -2.275527    2.830732
C       0.869496   -3.754080    3.095054
O       0.658963   -1.436515    3.686046
H       1.171422    1.886423    0.234385
H      -0.187666    1.969616   -0.905190
H      -0.493518    1.906659    0.844300
H      -0.912135   -0.332314   -0.231037
H       0.758840   -0.348172   -0.834373
H      -0.456355   -2.280877    1.021588
H       1.871048   -4.070071    2.783644
H       0.744190   -3.946706    4.160767
H       0.154434   -4.348668    2.516671
