19

O      -0.012191    0.017364    0.116236
C      -0.031361    1.218018    0.038931
C      -1.288310    2.102901   -0.029715
C      -0.717212    3.526716    0.168813
C       0.624246    3.436235   -0.596558
C       1.200975    2.141120    0.001795
C       1.668692    2.408589    1.454098
C       0.671133    3.250420    2.212793
C      -0.417354    3.763629    1.637553
H      -1.743699    1.985211   -1.022044
H      -2.025432    1.790962    0.713469
H      -1.380594    4.300815   -0.222847
H       0.454693    3.333566   -1.674157
H       1.261529    4.308398   -0.429082
H       2.003581    1.676021   -0.574031
H       1.830056    1.454145    1.970777
H       2.646957    2.909611    1.436328
H       0.873042    3.425358    3.266544
H      -1.129549    4.342389    2.219152
