14

N      -0.144790   -1.158740   -0.183771
C      -0.089276   -0.006072   -0.116380
C      -0.017355    1.452987   -0.029090
C      -0.642746    2.024304    1.282329
C       0.245337    3.236787    1.654825
C       1.530101    2.965921    0.910764
C       1.403009    1.999867    0.006079
H      -0.541932    1.848503   -0.911089
H      -1.696663    2.278094    1.155039
H      -0.577274    1.263385    2.063848
H      -0.198243    4.185941    1.323748
H       0.389170    3.325771    2.736773
H       2.436274    3.536030    1.081901
H       2.168347    1.644283   -0.672263
