18

O       0.109921   -0.441473   -0.100950
C      -0.015576    0.740326    0.139790
N       0.976039    1.670946    0.059065
C       2.341072    1.345771   -0.239313
C       3.048182    1.998862   -1.455917
C       4.338787    2.098765   -0.602678
C       3.471168    1.931781    0.691515
C       3.100470    3.187265    1.316180
C       2.752431    4.229838    1.807621
H      -0.977738    1.194978    0.448200
H       0.776484    2.615694    0.354759
H       2.408203    0.257929   -0.274753
H       3.081712    1.422253   -2.382147
H       2.631631    2.987738   -1.666835
H       4.996708    1.237569   -0.740039
H       4.925234    3.014440   -0.676573
H       3.856384    1.237685    1.443601
H       2.480841    5.150309    2.262603
