20

C       0.291005    1.569995    0.457787
C       0.366994    0.066692    0.180282
C       0.531257   -0.245456   -1.310369
N       0.597909   -1.699230   -1.510866
C      -0.032348   -2.514726   -2.501850
C       0.129636   -1.981465   -3.983187
O       0.819895   -0.728121   -3.953751
C       1.578109   -1.935937   -3.833526
C       1.466962   -2.467444   -2.346893
H       1.198054    2.084253    0.119942
H      -0.557888    2.029046   -0.061810
H       0.173998    1.772311    1.526785
H       1.205740   -0.377635    0.729860
H      -0.537308   -0.432396    0.549219
H      -0.306132    0.173708   -1.877331
H       1.439284    0.228640   -1.696484
H      -0.740224   -3.286450   -2.217795
H      -0.497309   -2.201992   -4.838300
H       2.378975   -2.111588   -4.541107
H       2.148555   -3.195349   -1.919199
