14

N      -0.009023   -1.141588   -0.137745
C       0.036353    0.011034   -0.050976
C       0.062645    1.426308    0.133075
O       0.267898    2.272919   -0.998667
C       1.177168    2.414029    0.084660
C       0.513450    3.297256    1.168357
C      -0.587197    4.267335    0.677666
O      -1.599948    3.225767    0.780446
C      -0.646439    2.280012    1.247683
H       2.229239    2.257017   -0.122271
H       1.124799    3.561014    2.027769
H      -0.803861    5.088660    1.368086
H      -0.487044    4.641905   -0.343840
H      -0.941249    1.725892    2.140866
