21

C       0.089674    1.488514    0.070229
C      -0.035682    0.001169   -0.016525
C      -0.132457   -0.767930   -1.108386
C      -0.069695   -2.233767   -0.724406
C      -0.654301   -3.238649   -1.695132
C       1.406985   -2.487010   -0.202488
C       0.936219   -2.113471    1.195939
C      -0.018541   -0.888907    1.186329
C      -0.509618   -2.249298    0.786161
H       1.044528    1.782081    0.525028
H       0.027940    1.954739   -0.916900
H      -0.699337    1.920229    0.699645
H      -0.084104   -0.424163   -2.136234
H      -0.138497   -3.198363   -2.661538
H      -0.564009   -4.261164   -1.313048
H      -1.716414   -3.039442   -1.877040
H       1.647839   -3.553673   -0.244473
H       2.210370   -1.909168   -0.672653
H       1.410519   -2.405729    2.125584
H      -0.262699   -0.499080    2.169168
H      -1.334703   -2.791656    1.233882
