15

O       0.069628    1.407161    0.193088
C       0.014223   -0.001829    0.282921
C      -1.363493   -0.530036   -0.149422
N      -1.453272   -1.974755   -0.041137
C      -1.816084   -2.738939    1.017315
C      -1.635463   -4.028891    0.580436
N      -1.175060   -3.993657   -0.699809
N      -1.061386   -2.751090   -1.073892
H       0.144629    1.647836   -0.735791
H       0.793775   -0.494895   -0.313540
H       0.191582   -0.254466    1.333385
H      -2.145901   -0.075904    0.463567
H      -1.552951   -0.276115   -1.195692
H      -2.163857   -2.315541    1.944598
H      -1.812731   -4.958777    1.095752
