15

O       0.005046    1.430579    0.091621
C       0.022994    0.034769    0.035394
C      -0.511722   -0.786465    1.204720
C      -1.299687   -0.639887   -0.062174
C      -2.658143   -0.000082   -0.307406
C      -2.843051   -1.172400   -1.297108
O      -1.547430   -1.724573   -0.952949
H       0.677373    1.713444    0.720719
H       0.839467   -0.409165   -0.535247
H      -0.036917   -1.741969    1.402472
H      -0.870753   -0.250786    2.078481
H      -3.337239   -0.003079    0.547108
H      -2.622737    0.998677   -0.743787
H      -3.652352   -1.873876   -1.067721
H      -2.893818   -0.893460   -2.355600
