16

C      -0.128682    1.115119   -0.093638
C       1.368313    1.465730   -0.198685
C       1.578828    0.241591    0.716859
O       0.152951   -0.038364    0.732661
C       2.373932   -0.879746    0.143094
N       2.680714   -1.106460   -1.096814
C       3.378583   -2.304309   -1.073161
C       3.457533   -2.742870    0.205364
O       2.820256   -1.835727    0.999277
H      -0.752781    1.845403    0.434845
H      -0.620868    0.833652   -1.031063
H       1.803214    1.346651   -1.189986
H       1.668587    2.421353    0.231640
H       1.939398    0.455170    1.729984
H       3.770844   -2.754302   -1.971154
H       3.892701   -3.595329    0.697663
