17

C      -0.390844    1.433729    0.019651
C       0.127017   -0.001149    0.059298
C       0.940978   -0.477794   -1.160287
C       1.865146   -1.537458   -0.521119
O       2.040794   -1.146023    0.845825
C       1.081110   -0.260332    1.228409
O       1.035205    0.207609    2.326986
C       0.070906   -1.050595   -2.255063
O       0.032189   -0.651874   -3.388078
H       0.425404    2.138289   -0.166341
H      -1.138015    1.560637   -0.768371
H      -0.843659    1.689360    0.980430
H      -0.719052   -0.688898    0.214905
H       1.526865    0.346253   -1.576620
H       1.416120   -2.538731   -0.547102
H       2.849025   -1.582042   -0.990804
H      -0.570045   -1.900737   -1.917538
