14

C      -0.002707    1.459555    0.002497
N      -0.026459    0.008657    0.000641
C       0.019827   -0.784654   -1.124357
C       0.055273   -2.097033   -0.732167
C       0.031846   -2.103395    0.697224
C      -0.015770   -0.780887    1.109450
C       0.042906   -3.235793    1.546649
N       0.053405   -4.166909    2.236603
H       1.016006    1.842476   -0.119378
H      -0.623191    1.840404   -0.812014
H      -0.406966    1.826954    0.947319
H       0.021693   -0.340732   -2.106900
H       0.081718   -2.963331   -1.372986
H      -0.042920   -0.361064    2.101678
