16

C      -0.047084    1.500722    0.080005
C       0.011150    0.016163   -0.017479
C       0.019154   -0.816526   -1.122900
C       0.084998   -2.179741   -0.652826
C       0.114119   -2.112811    0.712319
O       0.174581   -3.042426    1.698169
N       0.070019   -0.798809    1.094898
C      -0.029101   -0.395631   -2.471088
C      -0.069838   -0.046292   -3.624705
H       0.831278    1.918482    0.588629
H      -0.084034    1.923150   -0.926217
H      -0.935692    1.847032    0.623366
H       0.106652   -3.067480   -1.263875
H       0.201347   -3.913584    1.291129
H       0.079883   -0.492307    2.052698
H      -0.105591    0.261996   -4.639431
