13

N      -0.169837    1.341976    0.088722
C      -0.389888    0.164668   -0.290795
O      -0.204483   -0.859724    0.595185
C      -0.644388   -2.090272    0.224278
C      -1.767878   -2.568406   -0.395457
N      -1.692769   -3.943074   -0.486745
C      -0.558081   -4.279436    0.074309
N       0.129117   -3.184159    0.523421
H      -0.321815    1.991716   -0.679950
H      -0.714724   -0.187962   -1.275747
H      -2.618596   -2.015204   -0.760205
H      -0.179070   -5.282886    0.194360
H       1.019966   -3.155082    0.991542
