16

C      -0.092156    1.552775    0.005032
C       0.014928    0.021807   -0.002484
C       0.802524   -0.535983   -1.187453
O       2.156413   -0.089281   -1.249506
C       1.889380   -1.392805   -0.680751
C       1.799272   -1.359164    0.805860
C       0.793056   -0.553982    1.185218
C       0.462433   -0.220771    2.525936
N       0.154202    0.066266    3.605529
H       0.902266    1.998567   -0.075734
H      -0.697271    1.898031   -0.838307
H      -0.561095    1.906524    0.927244
H      -0.995075   -0.409365   -0.006793
H       0.315488   -0.695184   -2.145588
H       2.316283   -2.232511   -1.218488
H       2.469777   -1.884755    1.472979
