17

C      -0.444135   -1.207090   -0.610603
C      -0.263272   -0.055886   -0.314513
C      -0.048609    1.342390    0.048480
C      -0.475868    1.680151    1.474356
C       0.442920    2.372104    2.144628
C       1.686532    2.599663    1.328195
O       2.790385    1.736229    1.700800
C       2.512009    0.851873    0.589390
C       1.434646    1.803159    0.024229
H      -0.605630   -2.222843   -0.874957
H      -0.627618    1.957473   -0.656161
H      -1.443388    1.371664    1.853867
H       0.342954    2.721665    3.165879
H       2.007956    3.645918    1.277571
H       3.398103    0.706376   -0.037680
H       2.136347   -0.124723    0.915350
H       1.709656    2.285555   -0.912649
