15

O      -0.384989    0.543872   -0.679816
C       0.151043    1.110374    0.244894
C       1.316993    1.989039    0.091130
O       1.756261    2.808939    1.136130
C       2.557154    3.595976    0.136940
C       3.934900    2.999490    0.214218
C       3.878337    1.767597   -0.318996
C       2.539446    1.532347   -0.888699
C       1.829920    2.841295   -1.016718
H      -0.197317    1.000439    1.294225
H       2.412507    4.662400    0.293060
H       4.743311    3.423221    0.794056
H       4.646393    1.006649   -0.264234
H       2.285428    0.706962   -1.540126
H       1.330020    3.232074   -1.893569
