21

C       0.128201    1.550897   -0.075249
C      -0.023184    0.055677    0.077715
C      -1.413544   -0.544131   -0.114021
C      -1.418318   -1.898805    0.636638
C      -0.272091   -1.812967    1.676908
C       0.668178   -0.737972    1.158461
C       1.173061   -0.829351   -0.282084
C       1.103807   -2.008183   -1.093717
C       1.089655   -2.983921   -1.799308
H       1.147869    1.877566    0.152304
H      -0.102309    1.871962   -1.097772
H      -0.552303    2.083283    0.599920
H      -2.142787    0.147591    0.325541
H      -1.680227   -0.659237   -1.170225
H      -2.383529   -2.098590    1.109883
H      -1.227081   -2.713799   -0.062058
H      -0.653200   -1.497878    2.655365
H       0.222254   -2.779352    1.821045
H       1.337445   -0.252552    1.862107
H       2.083952   -0.258720   -0.449988
H       1.070580   -3.845869   -2.418691
