18

O      -0.002787   -0.063054    0.143032
C       0.018239    1.147638    0.046281
N       1.147842    1.903153   -0.025085
C       1.187077    3.390253   -0.077033
C       2.654950    3.666496   -0.452596
C       3.752364    4.264875    0.497617
C       4.631158    2.980581    0.244045
C       3.343651    2.341733   -0.217174
C       2.465247    1.391899    0.096844
H      -0.897256    1.770738    0.010425
H       0.472547    3.763359   -0.813918
H       0.922479    3.807929    0.903800
H       2.763611    4.060257   -1.469296
H       4.185856    5.225551    0.209076
H       3.408258    4.311516    1.533855
H       5.352116    3.148368   -0.563118
H       5.148857    2.532111    1.094186
H       2.583144    0.385418    0.468909
