18

O       0.369507    0.567148   -1.148824
C      -0.003707   -0.319722   -0.111385
C       0.175541    0.127830    1.362358
C      -1.278893   -0.370138    1.633088
N      -2.162867    0.439104    2.422202
C      -2.598779    0.086131    3.659429
O      -2.244273   -0.900233    4.271385
C      -1.543965   -0.329731    0.100127
O      -2.111145    0.910250   -0.268348
H       1.234300    0.936869   -0.947245
H       0.391997   -1.325950   -0.294204
H       0.982852   -0.321653    1.943136
H       0.233049    1.217594    1.433668
H      -1.289412   -1.382385    2.039085
H      -2.554654    1.245483    1.957792
H      -3.326757    0.818296    4.061796
H      -2.115792   -1.156968   -0.334457
H      -1.478535    1.318641   -0.877955
