15

C       0.167784    1.455701    0.115834
C      -0.319394    0.029871   -0.028029
O      -1.183685   -0.438084    0.673900
C       0.336195   -0.782163   -1.152369
C       0.193580   -2.261021   -1.004963
N       1.205908   -3.065278   -1.199101
O       0.729209   -4.327997   -0.998358
N      -0.598297   -4.311835   -0.671695
C      -0.942705   -3.055295   -0.669844
H       1.197013    1.453115    0.494054
H       0.187958    1.962788   -0.854900
H      -0.471306    1.999657    0.811803
H      -0.140860   -0.445957   -2.085207
H       1.394408   -0.523670   -1.249948
H      -1.943425   -2.743158   -0.423871
