13

O      -0.507757    0.167811    0.008090
C      -0.143221    1.308622    0.009295
N       1.176301    1.761316   -0.000860
C       2.350926    0.989489   -0.014720
O       2.368048   -0.207771   -0.020472
C       3.607267    1.884405   -0.021370
C       4.852842    1.140038   -0.038242
C       5.891889    0.540093   -0.052225
H      -0.837405    2.174292    0.019013
H       1.286887    2.765355    0.002328
H       3.547690    2.550929   -0.893254
H       3.564633    2.539518    0.860117
H       6.804153   -0.003539   -0.064672
