20

C       0.667959    1.456414    0.085700
N       1.026267    0.053981   -0.000498
C       0.519239   -0.608630   -0.936252
O       0.838329   -1.940795   -1.041732
C       0.290642   -2.659974   -2.079378
O      -0.459944   -2.189642   -2.890350
C       0.789753   -4.091037   -2.033892
C      -0.031902   -4.981953   -2.967248
C       2.296025   -4.126116   -2.367300
H       1.577327    2.064562    0.029612
H      -0.027833    1.792105   -0.698610
H       0.213564    1.652643    1.062908
H      -0.169167   -0.258183   -1.708363
H       0.671819   -4.425029   -0.995733
H       0.058903   -4.645721   -4.003650
H       0.320741   -6.015504   -2.905972
H      -1.093067   -4.962925   -2.705904
H       2.869138   -3.496704   -1.683023
H       2.669255   -5.151224   -2.289332
H       2.475203   -3.779501   -3.390587
