17

O       0.007496    1.451309   -0.010041
C       0.013223    0.033551   -0.042011
C      -1.381375   -0.503497    0.074427
C      -2.064740   -0.980703    1.319693
C      -1.964591   -1.896205    0.120894
C      -2.889096   -1.460229   -1.030096
C      -3.703587   -0.258677   -0.764940
N      -2.274231   -0.083585   -1.093808
H      -0.593464    1.726417   -0.713593
H       0.473019   -0.336640   -0.971993
H       0.629546   -0.305184    0.796799
H      -1.363062   -1.232475    2.109618
H      -3.005256   -0.594450    1.696249
H      -1.460590   -2.853082    0.148988
H      -3.001583   -2.051119   -1.933580
H      -4.340352    0.084403   -1.575806
H      -4.084109   -0.019207    0.220730
