18

C      -0.029929    1.399491    0.038970
O      -0.001883   -0.007252    0.010863
C       0.646155   -0.522472   -1.128090
C       0.614841   -2.042756   -1.046726
C       1.299391   -2.697827   -2.248911
C       1.274597   -4.210180   -2.179889
F       0.018865   -4.687188   -2.147415
F       1.881659   -4.755332   -3.246458
F       1.902461   -4.669550   -1.084340
H       0.984545    1.829132    0.050228
H      -0.567635    1.815762   -0.827905
H      -0.549411    1.697903    0.952588
H       0.144528   -0.175129   -2.049209
H       1.688807   -0.160275   -1.177294
H       1.106115   -2.359441   -0.121477
H      -0.426447   -2.374099   -0.986176
H       0.812982   -2.411436   -3.187251
H       2.349903   -2.397051   -2.319965
