23

C       0.056577    1.596881   -0.043448
C      -0.009514    0.073991   -0.183642
C      -1.387835   -0.497125    0.181922
C      -1.458068   -2.006085    0.058248
O      -0.577332   -2.709136    0.904815
C      -2.764621   -2.737500   -0.142462
C      -4.103450   -2.039621   -0.236996
C      -1.743474   -2.656659   -1.272607
O      -1.970404   -1.806239   -2.361685
H       1.047922    1.979975   -0.305198
H      -0.673079    2.084853   -0.699040
H      -0.161225    1.909817    0.983845
H       0.231608   -0.213849   -1.214279
H       0.757476   -0.376319    0.460473
H      -1.638713   -0.220907    1.214509
H      -2.139967   -0.042241   -0.467861
H       0.319126   -2.565730    0.581818
H      -2.783307   -3.699234    0.362929
H      -4.067088   -1.183939   -0.915535
H      -4.868947   -2.727253   -0.613822
H      -4.438335   -1.680981    0.741947
H      -1.180663   -3.561955   -1.500931
H      -2.655758   -2.199740   -2.912462
