18

N      -0.088839   -1.155351   -0.143944
C      -0.069465   -0.005345   -0.031939
C      -0.020298    1.450416    0.108334
C       1.398482    2.000476    0.032738
C       2.275090    1.946856   -1.268682
C       3.078990    3.040689   -0.483737
C       1.682805    3.543809    0.019226
C       3.533511    2.224667    0.735969
C       2.437581    1.543659    1.075438
H      -0.643251    1.895017   -0.676149
H      -0.479937    1.721742    1.066797
H       2.782792    1.006621   -1.491238
H       1.759599    2.335807   -2.153571
H       3.792211    3.701865   -0.972774
H       1.111893    4.081773   -0.745417
H       1.648779    4.068148    0.977038
H       4.518468    2.225441    1.180095
H       2.268040    0.825633    1.865319
