20

C       0.011110    1.605530   -0.018509
C       0.041178    0.078231   -0.050367
C       0.884410   -0.525913   -1.189737
C       1.119069   -1.969575   -0.735560
C       1.445336   -1.818501    0.775847
C       0.617009   -0.569846    1.238421
C       1.202853   -3.022051    1.557105
C       0.986943   -4.017946    2.196197
H       1.021040    2.013767    0.107106
H      -0.401594    2.015565   -0.946650
H      -0.602055    1.976736    0.809650
H      -0.987598   -0.283248   -0.179710
H       0.393099   -0.454675   -2.164866
H       1.842968    0.005683   -1.267955
H       0.202391   -2.557676   -0.853878
H       1.914561   -2.486425   -1.278453
H       2.510568   -1.569453    0.860296
H       1.267126    0.131537    1.771192
H      -0.174763   -0.859450    1.932750
H       0.802410   -4.896423    2.762870
