18

C      -0.014584    1.564959   -0.241202
C       0.142308    0.067789   -0.093513
O       1.289799   -0.488655   -0.809482
C       1.725710   -1.178428    0.360916
C       2.094794   -0.214606    1.442824
C       0.640605   -0.557437    1.218501
N      -0.180659   -1.102996    2.232758
C      -0.390867   -0.509868    3.449899
O       0.125269    0.514194    3.831209
H       0.860958    2.099256    0.135176
H      -0.154340    1.829170   -1.294156
H      -0.893965    1.904083    0.316214
H      -0.765297   -0.450539   -0.434955
H       2.088303   -2.194523    0.256639
H       2.503751   -0.658358    2.344108
H       2.484099    0.766853    1.193415
H      -0.731096   -1.921473    2.017958
H      -1.097264   -1.102972    4.065953
