18

C      -0.030128    1.563878   -0.040527
C       0.009592    0.032121    0.012097
C      -1.417273   -0.530877    0.151063
C       0.703254   -0.522767   -1.251381
C       1.042837   -1.985878   -1.113071
O       0.973952   -2.823597   -1.960297
O       1.523006   -2.338018    0.136500
C       1.426715   -1.429445    1.172029
N       0.769895   -0.358475    1.209947
H       0.982186    1.975915   -0.086724
H      -0.586360    1.908230   -0.918265
H      -0.513377    1.957355    0.857540
H      -2.044972   -0.188335   -0.677555
H      -1.419512   -1.625526    0.150879
H      -1.863034   -0.192055    1.089569
H       0.100411   -0.395742   -2.152496
H       1.649628    0.013073   -1.403823
H       2.001099   -1.788465    2.021836
