13

C       0.028488    1.372067   -0.135487
C       1.503886    1.875608    0.097235
C       2.134249    0.614380    0.613634
C       1.180962   -0.346461    0.642740
O      -0.053321   -0.049893    0.245339
O       1.597657   -1.514532    1.078550
N       2.994990   -1.342558    1.384841
C       3.262547   -0.081867    1.097039
H      -0.698485    1.903475    0.481362
H      -0.275809    1.433710   -1.181904
H       1.943179    2.240123   -0.837205
H       1.524292    2.705652    0.811125
H       4.276693    0.258018    1.258766
