17

N      -0.046479    1.413395   -0.209193
C      -0.016072    0.021675    0.002662
C      -1.060143   -0.852148    0.175082
C      -2.452020   -1.328523   -0.213324
C      -1.796511   -2.752018   -0.309701
N      -0.549856   -2.156744    0.230506
C       0.793143   -2.121203    0.046002
O       1.504976   -3.277349    0.044102
C       1.176113   -0.792306   -0.016595
H       0.768921    1.876954    0.172058
H      -0.872161    1.841119    0.189654
H      -3.234234   -1.238290    0.547159
H      -2.840704   -0.952306   -1.163559
H      -2.213960   -3.542127    0.318952
H      -1.685220   -3.114199   -1.335332
H       2.430902   -3.059048   -0.099361
H       2.194142   -0.427522   -0.007613
