18

O       0.065024    1.491545   -0.058997
C       0.019190    0.087972    0.033966
C       0.138592   -0.629294    1.414665
C      -0.924008    0.125336    2.237029
C      -2.113374   -0.330441    1.364006
C      -2.082445   -1.866474    1.585152
C      -0.769056   -1.779742    0.794718
C      -1.353385   -0.568722   -0.014672
H       0.985184    1.770614   -0.012709
H       0.680395   -0.384258   -0.707549
H       1.106737   -0.838270    1.869903
H      -1.010579   -0.217436    3.271839
H      -0.755031    1.203542    2.223740
H      -3.040143    0.239049    1.413587
H      -2.078284   -2.238752    2.615163
H      -2.848002   -2.392184    1.006464
H      -0.272717   -2.630901    0.331203
H      -1.948880   -0.674372   -0.920152
