24

C       0.548209    1.828969   -0.878981
O      -0.097799    0.605433   -1.135696
C       0.755740   -0.538536   -1.117855
C       1.199868   -0.935323    0.291454
C       0.027651   -1.640795   -1.887036
N      -0.285821   -2.913322   -1.208040
C      -1.390845   -2.060173   -1.681900
C      -2.274323   -1.464216   -0.604682
C      -2.156872   -2.515648   -2.910828
H       0.912227    1.912800    0.155395
H       1.403171    1.987040   -1.556282
H      -0.184993    2.621678   -1.050466
H       1.664082   -0.289358   -1.693698
H       1.834242   -1.823919    0.241671
H       1.775634   -0.130136    0.757025
H       0.349504   -1.174945    0.932012
H       0.361848   -1.716572   -2.920742
H      -0.136733   -3.695982   -1.840322
H      -1.707800   -1.192606    0.284601
H      -2.772096   -0.562612   -0.973451
H      -3.044923   -2.187504   -0.312412
H      -2.891559   -3.285561   -2.645814
H      -2.703221   -1.681898   -3.365275
H      -1.487585   -2.932554   -3.670875
