16

C      -0.058842    1.531153   -0.014565
C      -0.011542    0.027409   -0.024007
C       0.006325   -0.703417   -1.202776
C       0.026329   -2.091345   -1.142138
F       0.040958   -2.812162   -2.271924
C       0.030891   -2.722354    0.087221
N       0.025978   -2.038678    1.234506
C       0.001628   -0.705871    1.186682
N      -0.072002   -0.049321    2.409638
H       0.847635    1.965915    0.428996
H      -0.148419    1.930620   -1.027515
H      -0.908781    1.895866    0.574201
H      -0.002605   -0.208305   -2.168255
H       0.044951   -3.807131    0.146487
H       0.152956   -0.656953    3.184806
H       0.384696    0.848475    2.463597
