18

C      -0.091848    1.347375    0.051764
O       0.029627   -0.066872    0.013785
C       0.666700   -0.609489    1.122771
O      -0.118851   -0.472672    2.313532
C      -0.437550   -1.723111    2.799145
N      -1.130622   -1.944535    3.833739
C       0.180703   -2.718899    1.917366
C       0.833978   -2.101683    0.931303
C       1.592197   -2.650934   -0.226213
H       0.891985    1.826851    0.161834
H      -0.534337    1.651715   -0.898471
H      -0.738503    1.669248    0.875490
H       1.618618   -0.082312    1.307812
H      -1.441153   -1.065701    4.251062
H       0.076569   -3.780662    2.087430
H       1.579168   -3.742921   -0.233914
H       1.163283   -2.283439   -1.164869
H       2.637638   -2.318441   -0.205381
