15

N      -0.070949    1.423301    0.009461
C      -0.088352    0.019168   -0.014895
C      -1.184050   -0.825322   -0.006235
N      -2.517514   -0.423727   -0.046389
C      -0.632909   -2.140488   -0.028861
C      -1.369000   -3.404447   -0.041848
O      -0.884518   -4.512643   -0.037180
N       0.713957   -2.100605   -0.042026
N       1.009760   -0.810358   -0.048307
H       0.509083    1.811557    0.744378
H       0.188896    1.846718   -0.875006
H      -2.612879    0.557586    0.187223
H      -3.138666   -0.985321    0.519292
H      -2.475805   -3.268735   -0.064347
H       1.977878   -0.529402   -0.062008
