20

C       0.260887    1.422117    0.234978
C      -0.250012    0.033374   -0.167924
C       0.550097   -0.571556   -1.302174
C       1.928903   -1.155882   -1.137946
O       2.294313   -1.572842    0.174396
C       1.422807   -2.569647    0.479911
N       0.562544   -2.923558   -0.385922
C       0.767563   -2.063527   -1.538689
C       0.539500   -2.697475   -2.885065
H       1.295685    1.368648    0.587700
H       0.231495    2.119390   -0.609575
H      -0.348663    1.847213    1.038446
H      -0.236239   -0.629578    0.701751
H      -1.300222    0.097595   -0.478317
H       0.462500   -0.025489   -2.240332
H       2.784502   -0.865480   -1.735169
H       1.544013   -2.989818    1.471125
H      -0.512213   -2.977828   -3.002618
H       0.800219   -2.006339   -3.692071
H       1.143886   -3.603206   -2.997213
