15

C      -0.067704    1.546974    0.064507
C       0.012075    0.047847   -0.086937
C       0.693294   -0.674278   -1.207594
N       1.251079   -0.733195    0.160108
C       2.445725    0.061640    0.140610
O       3.110016    0.353457    1.094043
N       2.700445    0.422706   -1.185208
C       1.691206    0.054180   -2.069503
O       1.671619    0.243517   -3.257809
H       0.772481    2.071381   -0.394245
H      -0.988324    1.907821   -0.403794
H      -0.099716    1.814147    1.125139
H      -0.853152   -0.475805    0.313903
H       0.258255   -1.577959   -1.620497
H       3.500679    0.978024   -1.450808
