17

C       0.274007    0.896630    0.443399
O      -0.153720   -0.022960   -0.549190
C      -1.373392   -0.600529   -0.266006
C      -1.649714   -1.918343   -0.889596
C      -1.438645   -1.851335    0.628300
C      -0.254335   -2.391409    1.207631
C       0.739442   -2.852575    1.727282
C       1.857817   -3.370183    2.300517
C       2.851218   -3.829996    2.812332
H       1.228963    1.304034    0.106030
H      -0.446030    1.720206    0.559807
H       0.411984    0.402801    1.413043
H      -2.199380    0.102625   -0.141971
H      -2.648520   -2.136526   -1.248940
H      -0.839854   -2.354385   -1.461922
H      -2.334311   -1.944325    1.236874
H       3.724424   -4.235722    3.258998
