15

O      -0.031672    1.430725    0.007098
C       0.002255    0.011491    0.001914
C      -1.406893   -0.486127    0.012637
C      -2.561947    0.259054    0.023641
N      -3.581436   -0.657920    0.030159
C      -3.015671   -1.907114    0.022874
N      -1.693633   -1.823596    0.012308
C      -3.796994   -3.084428    0.026896
C      -4.490897   -4.068308    0.030610
H       0.874371    1.750474    0.001214
H       0.520861   -0.379014   -0.888113
H       0.536434   -0.385278    0.879846
H      -2.731879    1.321166    0.027309
H      -4.568579   -0.462747    0.038759
H      -5.088154   -4.946288    0.033761
