16

C      -0.371792    1.268018   -0.428866
C       0.421928    0.104461    0.168630
N       1.180877   -0.637316   -0.825898
C       0.794488   -1.848918   -1.280580
O      -0.151215   -2.499968   -0.904894
O       1.681268   -2.248538   -2.267927
C       1.462609   -3.468380   -2.845150
N       2.255240   -3.848280   -3.746251
H       0.288466    1.986333   -0.926382
H      -1.096688    0.904987   -1.162930
H      -0.914623    1.800394    0.358326
H       1.113462    0.469029    0.936866
H      -0.248717   -0.615162    0.642516
H       1.970787   -0.208467   -1.281082
H       0.591196   -3.977488   -2.432221
H       1.973096   -4.767629   -4.082579
