18

C       0.395107    1.512470    0.006436
C       1.323541    0.316620   -0.009050
C      -0.164181    0.124124    0.004336
C      -0.970384   -0.578476    1.113522
C      -1.583848   -1.450200    0.009596
C      -1.832630   -2.891487    0.004204
O      -2.909562   -1.941155    0.019807
C      -0.991843   -0.566508   -1.096528
H       0.323685    2.091951    0.921619
H       0.306016    2.101816   -0.900866
H       1.860807    0.099510   -0.927104
H       1.878481    0.089620    0.896006
H      -0.403154   -1.094501    1.893355
H      -1.718592    0.068082    1.583951
H      -1.724668   -3.458150   -0.920265
H      -1.706802   -3.468120    0.920212
H      -1.748977    0.085029   -1.545309
H      -0.439920   -1.073997   -1.892774
