18

C       0.031542    1.532352   -0.097318
C       1.513327    1.863352    0.016675
C       2.172906    0.728633    0.787662
C       1.083755   -0.277834    1.132646
C       0.053314   -0.005116    0.018424
O       0.496324   -0.581674   -1.209075
C       1.780210   -0.129346   -1.641851
C       2.408728    0.878559   -0.696077
H      -0.534264    1.981288    0.727706
H      -0.427507    1.846902   -1.039535
H       1.836361    2.890966    0.136278
H       2.986005    0.913165    1.480097
H       1.413868   -1.320944    1.112917
H       0.658303   -0.070332    2.121725
H      -0.926857   -0.447092    0.206467
H       2.437200   -1.005309   -1.747947
H       1.671074    0.312642   -2.643322
H       3.385950    1.233763   -1.009304
