16

C      -0.178740    1.485634    0.053508
C      -0.001442    0.001436   -0.008737
C      -0.090814   -0.782305   -1.085447
C       0.202985   -2.231439   -0.782605
C       0.180831   -2.273761    0.768221
C       0.372007   -0.804883    1.220271
H       0.732562    1.979002    0.416566
H      -0.423913    1.906685   -0.925501
H      -0.977897    1.762012    0.753537
H      -0.309176   -0.427003   -2.087690
H      -0.523779   -2.920436   -1.228738
H       1.184067   -2.522991   -1.185555
H      -0.796310   -2.632980    1.106363
H       0.932518   -2.948571    1.185733
H       1.412415   -0.594128    1.509819
H      -0.240573   -0.550263    2.094004
