16

O       0.014701    1.440245    0.007093
C      -0.001248    0.023894    0.002027
C      -1.421553   -0.461982    0.012364
C      -2.505709    0.364732    0.023565
C      -3.834486   -0.148943    0.032997
C      -4.006942   -1.496543    0.030610
N      -2.922447   -2.323246    0.019427
C      -1.583874   -1.906836    0.009648
O      -0.676529   -2.729448   -0.000287
H       0.932010    1.725637    0.000323
H       0.508531   -0.389897   -0.882870
H       0.523535   -0.396465    0.874950
H      -2.339688    1.436068    0.025261
H      -4.691114    0.511023    0.041851
H      -4.975649   -1.980884    0.037156
H      -3.042448   -3.326777    0.017566
