15

C      -0.062245    1.488156    0.008038
C       0.027929   -0.006802   -0.031199
C       0.915657   -0.885438   -0.918724
C       0.060156   -2.063892   -0.391651
O       0.421768   -2.145506    1.017733
C      -0.285322   -0.916254    1.175110
C      -1.097650   -1.046441   -0.068901
H       0.880526    1.931618    0.348990
H      -0.288439    1.904034   -0.980561
H      -0.850178    1.820656    0.693108
H       0.730518   -0.690022   -1.978940
H       1.991147   -0.937285   -0.717603
H      -0.000010   -3.032413   -0.883024
H      -0.519013   -0.562455    2.171075
H      -2.155141   -0.993968   -0.288996
