19

C       0.566921    1.217504    0.317533
C      -0.246893    0.000966   -0.141609
C       0.305522   -0.600483   -1.411503
O       1.557540   -1.311774   -1.334060
C       0.382430   -2.042497   -1.701630
C      -0.055304   -3.114774   -0.746190
C       0.892248   -4.203868   -0.398651
N       0.529837   -3.179970    0.598326
H       1.604543    0.934446    0.518627
H       0.577579    2.001092   -0.448101
H       0.148037    1.648018    1.231538
H      -0.282979   -0.753761    0.648324
H      -1.285065    0.300106   -0.337841
H       0.262065    0.065253   -2.277253
H       0.354050   -2.339247   -2.752713
H      -1.118317   -3.346397   -0.787613
H       0.521181   -5.203398   -0.191659
H       1.886860   -4.162795   -0.835047
H       1.284390   -2.495318    0.630431
