21

C      -0.367447    1.348266   -0.337818
O       0.113983    0.048342   -0.026681
C       0.813973   -0.563836   -1.058015
C       0.045491   -1.184549   -2.207659
C       0.761542   -2.057754   -1.193644
C       2.153841   -2.562789   -1.551421
C       2.898440   -1.311268   -2.065264
C       2.244076   -0.111925   -1.339918
O       2.372973    1.124291   -2.030254
H       0.450154    2.039069   -0.570895
H      -1.059483    1.322500   -1.192456
H      -0.906917    1.701808    0.543988
H      -1.034569   -1.146270   -2.120185
H       0.413149   -1.123428   -3.228262
H       0.143514   -2.632614   -0.513441
H       2.637923   -2.952193   -0.648390
H       2.144140   -3.374822   -2.286509
H       3.977002   -1.353308   -1.898159
H       2.754506   -1.187614   -3.145323
H       2.725782    0.062802   -0.370998
H       1.878860    1.045964   -2.854297
