17

O       0.519476    0.901740    0.829412
C       0.068666   -0.250142    0.166543
C      -1.471709   -0.481928   -0.008981
C      -2.378424    0.762460    0.108995
C      -2.646512    1.164295   -1.322023
C      -2.071719    0.356559   -2.213631
C      -1.264992   -0.730522   -1.550607
C       0.209861   -0.292307   -1.361752
O       1.083065    0.079818   -2.092768
H       1.140472    1.345690    0.239528
H       0.529722   -1.152570    0.600484
H      -1.839874   -1.327176    0.570947
H      -3.308210    0.541251    0.646742
H      -1.874271    1.558607    0.669265
H      -3.249277    2.030173   -1.574521
H      -2.109606    0.470968   -3.290329
H      -1.412965   -1.735626   -1.954203
