22

C      -0.140205    1.617787    0.005396
C      -0.264818    0.108155   -0.219504
C       0.620343   -0.466316   -1.318551
C       1.096186    0.374380   -2.429441
O       1.966403    0.042432   -1.342152
C       0.549146   -1.976174   -1.557590
C       0.986412   -2.776708   -0.321368
C      -0.830421   -2.421553   -2.064913
H       0.909214    1.904111    0.113279
H      -0.569555    2.192087   -0.821362
H      -0.671189    1.910966    0.915545
H      -0.014740   -0.409972    0.714166
H      -1.307583   -0.151048   -0.438378
H       1.344262   -0.091541   -3.383055
H       0.815485    1.423166   -2.494101
H       1.281457   -2.178020   -2.349107
H       1.079109   -3.839304   -0.567814
H       1.956736   -2.427125    0.043407
H       0.262269   -2.693970    0.496093
H      -1.140356   -1.845211   -2.942972
H      -0.810659   -3.478990   -2.347317
H      -1.601666   -2.304012   -1.296302
