20

C       0.004004    1.607670   -0.215478
C      -0.047052    0.088015   -0.040119
C       0.682372   -0.649047   -1.163365
C       0.663283   -2.151139   -1.040271
N       0.092135   -2.758015   -0.087671
O       1.342915   -2.699921   -2.095582
C       1.444573   -4.107821   -2.171511
C       2.239478   -4.444740   -3.423689
O       2.489773   -5.571071   -3.755750
H       1.036346    1.975804   -0.222426
H      -0.461968    1.918224   -1.157671
H      -0.523178    2.115213    0.597849
H       0.393121   -0.198161    0.920489
H      -1.085975   -0.255000   -0.002722
H       0.254397   -0.389783   -2.140994
H       1.732711   -0.332957   -1.218273
H       0.167285   -3.771753   -0.145731
H       1.962175   -4.526879   -1.296884
H       0.456371   -4.584928   -2.237132
H       2.567919   -3.555668   -4.003653
