17

C       0.007809    1.560935    0.051184
O       1.354525    1.987542   -0.185980
C       2.036094    0.950900   -0.827622
C       2.435520   -0.343850   -0.109161
C       1.991986   -0.682120    1.296033
O       1.399884    0.355903    2.092535
C       0.536592   -0.539343    1.374468
C       0.037576    0.016872    0.024826
C       1.186164   -0.258629   -0.986723
H      -0.306533    1.962976    1.017024
H      -0.649176    1.955057   -0.737523
H       2.707596    1.303546   -1.604195
H       3.335606   -0.824512   -0.476703
H       2.555762   -1.424659    1.855065
H      -0.110650   -1.157975    1.991558
H      -0.918029   -0.418672   -0.270559
H       1.029014   -0.800988   -1.911176
