22

C       0.106955    1.645917   -0.108754
C       0.023855    0.123802    0.049530
C       0.644602   -0.667054   -1.132103
C       1.243970   -1.946944   -0.505614
C       1.460875   -1.549416    0.946268
C       0.786516   -0.430315    1.231155
C       2.262618   -2.332458    1.906050
C       2.479241   -3.797715    1.727113
N       3.597641   -2.867889    1.538658
H       1.149009    1.971854   -0.199774
H      -0.430530    1.978328   -1.003430
H      -0.331588    2.160694    0.752755
H      -1.040289   -0.143378    0.153882
H      -0.073439   -0.878041   -1.929195
H       1.450342   -0.067209   -1.571024
H       0.542952   -2.791529   -0.565116
H       2.157822   -2.272395   -1.017479
H       0.748715    0.029690    2.214083
H       2.236871   -1.951960    2.924444
H       2.555399   -4.437250    2.602234
H       2.040354   -4.275126    0.855274
H       3.758641   -2.721631    0.544760
