18

C      -0.018991    1.527702    0.016537
C       1.385892    2.091809   -0.041287
C       2.459352    1.307821   -0.146117
C       2.248230   -0.192879   -0.199503
O       1.019758   -0.459868   -0.882359
C       0.011617   -0.015888    0.028425
C       0.505584   -0.541178    1.374255
N       1.113257   -1.888300    1.268468
C       1.969396   -0.689042    1.223841
H      -0.544911    1.906289    0.903766
H      -0.593499    1.884962   -0.848537
H       1.485464    3.174183   -0.023526
H       3.466489    1.711171   -0.182958
H       3.040773   -0.724616   -0.731078
H      -0.936172   -0.450517   -0.299586
H       0.039136   -0.219464    2.298949
H       1.170484   -2.289863    2.202278
H       2.664524   -0.468532    2.026121
