19

O      -0.137955    1.483349   -0.113866
C      -0.028919    0.073431   -0.027754
C      -1.412882   -0.572409   -0.195241
C      -1.752503   -0.155607   -1.654605
C      -0.598365   -1.122254   -2.006549
C      -1.032954   -1.986307   -0.785604
C       0.238265   -2.659655   -0.278427
O       1.297333   -1.814456   -0.761859
C       0.656831   -0.630179   -1.243595
H       0.743349    1.854459   -0.007143
H       0.479968   -0.222157    0.898862
H      -2.121575   -0.454845    0.624284
H      -2.718057   -0.547843   -1.982953
H      -1.661172    0.899544   -1.911006
H      -0.443058   -1.540953   -3.000412
H      -1.893053   -2.638338   -0.936492
H       0.281011   -2.741604    0.816186
H       0.368148   -3.664152   -0.699666
H       1.392013   -0.030576   -1.781949
