14

N      -0.062848   -3.763129   -0.145344
C      -0.035331   -2.603297   -0.085943
C      -0.001797   -1.240221   -0.019229
C       0.031766   -0.033777    0.040167
C       0.072455    1.418105    0.094227
O      -0.129537    1.964013    1.429504
C       1.081586    2.725571    1.311516
C       2.265427    1.824948    1.195016
C       1.428628    2.127044   -0.030769
H      -0.676611    1.837008   -0.588713
H       1.072564    3.741498    1.685667
H       3.231917    2.319018    1.198142
H       2.244443    0.843137    1.658480
H       1.815327    2.565063   -0.939550
