19

O       0.060574    0.036651    0.351168
C       0.003438    1.223896    0.105117
C      -1.311748    1.961271   -0.081151
C      -1.202529    3.129016   -1.071845
N      -0.077044    3.974712   -0.685096
C       1.194325    3.281723   -0.879454
C       1.255112    2.058690    0.019769
C       2.094963    2.029463    1.260893
N       2.525737    1.334403    0.050569
H      -2.081895    1.240688   -0.367675
H      -1.579455    2.367167    0.903438
H      -1.101458    2.727616   -2.098323
H      -2.121824    3.721780   -1.045878
H      -0.084547    4.833544   -1.223454
H       1.343198    2.945138   -1.923160
H       2.019889    3.957347   -0.638214
H       2.663801    2.918409    1.521146
H       1.737592    1.439561    2.100646
H       2.302010    0.342434    0.144054
