16

O       0.145863    1.373877    0.234478
C       0.069835   -0.002694   -0.094455
C      -1.339851   -0.486623   -0.172372
C      -1.939276   -1.860912    0.031900
N      -2.239595   -0.727814    0.972422
C      -3.322548    0.081672    0.292608
C      -2.608624   -0.117208   -1.050956
C      -2.723538   -1.645620   -1.234207
O      -3.078224   -2.358122   -2.128059
H      -0.212946    1.474513    1.122976
H       0.557897   -0.112508   -1.068178
H       0.616879   -0.628391    0.626523
H      -1.497070   -2.755172    0.449261
H      -4.338142   -0.313945    0.402197
H      -3.270672    1.101277    0.679421
H      -2.681662    0.557355   -1.898798
