21

C      -0.040821    1.450449   -0.296070
C       0.139226   -0.034413   -0.066418
C       1.434882   -0.765330   -0.073504
C       2.575346    0.041277    0.558068
C       1.746380    0.187688    1.874152
C       0.611458   -0.640002    1.248354
C      -0.178484   -1.730720    1.869875
C      -0.026132   -1.930834    3.368382
O      -0.909857   -2.442235    1.208000
H       0.765643    2.049397    0.134040
H      -0.074006    1.666632   -1.369495
H      -0.982412    1.798046    0.141600
H      -0.662698   -0.646152   -0.472408
H       1.559140   -1.678404   -0.644038
H       3.477484   -0.555152    0.706117
H       2.855474    0.965077    0.042899
H       2.225870   -0.314382    2.716608
H       1.487853    1.204523    2.186309
H      -0.183897   -0.990404    3.907904
H      -0.740816   -2.681409    3.707512
H       0.989474   -2.267465    3.606947
