19

C       0.058162    1.588680    0.129021
C      -0.083873    0.064725   -0.036231
C       0.665999   -0.476834   -1.218571
C       0.156690   -0.857824   -2.442460
N       1.209672   -1.253592   -3.202054
N       2.384161   -1.163443   -2.557100
C       2.067595   -0.692386   -1.349551
C       3.152362   -0.429758   -0.350581
O       3.434713    0.961363   -0.179755
H       1.112404    1.860096    0.226758
H      -0.349628    2.113152   -0.741502
H      -0.478823    1.936162    1.017583
H       0.273378   -0.425995    0.878048
H      -1.143400   -0.200761   -0.127813
H      -0.855005   -0.882442   -2.817509
H       1.194257   -1.608972   -4.142643
H       2.859767   -0.784694    0.642748
H       4.050778   -0.981718   -0.657153
H       3.636122    1.313704   -1.053395
