18

N       0.200519   -0.953024    0.773805
C       0.084384    0.131634    0.383389
C      -0.016884    1.467842   -0.116680
C      -1.147582    2.164786    0.071521
C      -1.370894    3.557583   -0.434897
C      -0.100653    4.285492   -0.835544
C       1.035536    4.409506    0.150833
C       1.173955    3.504499   -1.048520
C       1.184462    1.996739   -0.873314
H      -1.969314    1.696331    0.605236
H      -2.049020    3.499207   -1.300086
H      -1.922657    4.132218    0.321684
H      -0.264039    5.136693   -1.488919
H       1.605541    5.331500    0.168220
H       0.911528    3.942808    1.123287
H       1.830721    3.854923   -1.838617
H       2.102196    1.675661   -0.365210
H       1.208923    1.513187   -1.859479
