21

C      -0.165612    1.588088   -0.092285
C       0.048320    0.077784   -0.001042
C       0.918709   -0.547503   -1.148849
O       1.245151   -1.821802   -0.580184
C       1.945100   -1.304904    0.558523
C       2.915631   -0.321832   -0.086592
C       2.273383    0.151992   -1.155204
C       0.806781   -0.482081    1.260753
C       1.279482    0.521351    2.311846
H       0.777027    2.141522   -0.067357
H      -0.679362    1.846921   -1.025253
H      -0.787694    1.951504    0.731761
H      -0.929650   -0.410738   -0.053207
H       0.411273   -0.668835   -2.106024
H       2.370157   -2.114273    1.152365
H       3.875486   -0.025249    0.313384
H       2.580940    0.929824   -1.840514
H       0.155411   -1.211697    1.751853
H       1.954331    1.272479    1.892504
H       0.434454    1.048446    2.765944
H       1.813381    0.007655    3.119586
