16

C      -0.024420    1.475139    0.620850
C      -0.134693    0.086686    0.082468
N      -1.195998   -0.425159   -0.361748
C      -1.147808   -1.791721   -0.861956
C      -0.096588   -2.622654   -0.117432
O       0.050520   -3.900772   -0.665841
C       1.217581   -1.867470   -0.148322
O       2.279992   -2.383737   -0.357285
O       1.128545   -0.531625    0.099313
H       0.704473    2.047920    0.038908
H      -0.998301    1.960298    0.575984
H       0.333798    1.453132    1.655017
H      -2.132878   -2.251107   -0.750034
H      -0.918955   -1.785276   -1.936282
H      -0.399109   -2.676307    0.944369
H       1.003450   -4.060174   -0.731162
