18

C       0.023405    1.498657    0.014329
O       1.215130    0.721760   -0.041387
C      -0.060294    0.029025    0.004098
C      -0.364145   -0.719920    1.288957
C      -0.058959   -2.215276    1.133283
C      -0.871743   -2.817350   -0.021816
C      -0.803099   -1.960585   -1.259103
C      -0.416141   -0.683648   -1.246888
H      -0.147935    2.034588    0.948547
H      -0.215178    2.062472   -0.887850
H       0.217355   -0.276341    2.102553
H      -1.427038   -0.587230    1.533410
H       1.010362   -2.340061    0.924544
H      -0.268458   -2.748217    2.066203
H      -0.511834   -3.826884   -0.254262
H      -1.923015   -2.944070    0.279565
H      -1.079247   -2.426393   -2.202104
H      -0.341186   -0.114154   -2.169242
