23

C       0.241567    1.560171   -0.058330
C       0.051692    0.053658    0.024935
O       0.739752   -0.527312   -1.069434
C       0.708455   -1.946554   -1.208757
C       1.379000   -2.660649   -0.021848
C      -0.718413   -2.475365   -1.438337
C       1.537731   -2.268038   -2.478702
C       2.156510   -1.120873   -3.244780
O       1.668192   -3.420886   -2.822729
H       1.303578    1.817111   -0.009230
H      -0.160786    1.946971   -0.998966
H      -0.274426    2.054903    0.770016
H       0.444510   -0.323385    0.980452
H      -1.019391   -0.193572   -0.008869
H       0.766931   -2.593450    0.881706
H       1.516621   -3.715200   -0.268930
H       2.358271   -2.219339    0.188020
H      -1.217426   -1.903458   -2.226804
H      -0.668099   -3.522196   -1.744409
H      -1.319824   -2.409121   -0.527584
H       2.824052   -0.547875   -2.594395
H       2.701252   -1.515710   -4.102944
H       1.381145   -0.420410   -3.568972
