18

C       0.424908    0.871470   -0.595289
N      -0.375058    0.101215    0.365385
C       0.344550   -0.573645    1.363466
C       0.796089   -0.243562    2.610656
N       1.421587   -1.323636    3.214946
C       1.349431   -2.275539    2.324543
O       1.835166   -3.526846    2.446190
N       0.712208   -1.918114    1.182690
C       0.428641   -2.753250    0.035125
H       1.084104    0.193834   -1.145961
H      -0.244118    1.349247   -1.317231
H       1.051647    1.643494   -0.124747
H      -1.091861    0.683679    0.778673
H       0.697643    0.703515    3.119420
H       2.229976   -3.571486    3.326197
H       0.137095   -3.752112    0.366669
H      -0.391741   -2.292989   -0.518279
H       1.299002   -2.845737   -0.624088
