22

O       0.135696    1.362978   -0.006472
C       0.051856   -0.029214    0.202688
C      -1.387927   -0.522500    0.037908
O      -1.893366   -0.052583   -1.221254
C      -1.525926   -2.035511    0.187613
C      -2.973426   -2.521015    0.094046
N      -3.032822   -3.977142    0.137214
C      -3.149908   -4.581679    1.460918
C      -4.310437   -4.559527    0.528363
H      -0.452962    1.541580   -0.751916
H       0.702805   -0.584265   -0.498930
H       0.414293   -0.235828    1.215840
H      -2.011401   -0.010323    0.781175
H      -1.465567   -0.568425   -1.915974
H      -0.931342   -2.540228   -0.586290
H      -1.096816   -2.339277    1.150955
H      -3.572113   -2.057445    0.900955
H      -3.409229   -2.189043   -0.853993
H      -2.583697   -5.494921    1.619663
H      -3.195719   -3.917747    2.323639
H      -5.127555   -3.881362    0.770578
H      -4.607148   -5.456062   -0.008443
