21

C       0.160948    1.683240    0.006030
C      -0.032897    0.165546    0.033787
C       0.794444   -0.517511    1.122560
C       0.662639   -2.033461    1.141084
O       0.113656   -2.659450    0.266590
C       1.238603   -2.723432    2.377187
C       0.179190   -2.986602    3.486659
C       0.443019   -4.470838    3.158692
O       1.464138   -4.125142    2.199879
H       1.207663    1.948295   -0.181451
H      -0.443632    2.143652   -0.781253
H      -0.128955    2.141979    0.958266
H      -1.091128   -0.075983    0.185298
H       0.232838   -0.270670   -0.934286
H       1.864135   -0.288531    0.998669
H       0.540450   -0.130328    2.120661
H       2.144162   -2.201224    2.714513
H       0.476852   -2.667610    4.485894
H      -0.827448   -2.624595    3.271727
H       0.842330   -5.078780    3.978542
H      -0.391639   -5.001872    2.687528
