12

N       0.179067    1.296802    0.185189
C      -0.022712   -0.047504    0.064305
C      -1.128063   -0.865382    0.012059
N      -0.703952   -2.172808   -0.029151
C       0.582184   -2.096128   -0.002316
O       1.081196   -0.829007    0.054931
N       1.538016   -3.166273   -0.034794
O       1.091212   -4.303058   -0.078642
O       2.722975   -2.845798   -0.016445
H       1.078793    1.631411   -0.128269
H      -0.593257    1.879772   -0.098297
H      -2.171085   -0.595770    0.002831
