23

C      -0.019870    1.603154   -0.177162
C      -0.009714    0.117839    0.203210
C      -1.380231   -0.517277    0.076128
C      -1.856708   -1.100869   -1.229153
C      -1.599371   -2.012993   -0.047069
C      -0.458971   -2.971898   -0.090682
O      -0.055481   -3.588081    1.143472
C      -0.580329   -4.427882    0.109248
C      -1.866608   -5.160726    0.392777
H       0.975937    2.045680   -0.075629
H      -0.348066    1.742140   -1.212691
H      -0.703203    2.170364    0.464563
H       0.711390   -0.411028   -0.430249
H       0.350397    0.003099    1.233415
H      -2.143894   -0.008802    0.661283
H      -2.880812   -0.942846   -1.548400
H      -1.140665   -1.137407   -2.045682
H      -2.478224   -2.388304    0.465769
H       0.383650   -2.643294   -0.702089
H       0.181852   -5.044466   -0.374495
H      -2.603097   -4.519535    0.880741
H      -2.298891   -5.547500   -0.536608
H      -1.674578   -6.013718    1.052225
