14

C       0.009417    1.476636   -0.060057
C       0.014669   -0.019292   -0.057020
N       0.604092   -0.878444   -1.142818
C       0.082868   -1.885113   -0.162507
C       0.503905   -1.011251    1.050260
O      -0.785844   -1.089784    1.722936
C      -1.135471   -1.030011    0.309937
H       1.026244    1.866890   -0.165652
H      -0.594637    1.870609   -0.884529
H      -0.412928    1.844551    0.880331
H       0.006762   -0.854731   -1.973838
H       0.165321   -2.963744   -0.293900
H       1.416737   -1.014843    1.644120
H      -2.188807   -1.056577    0.024097
