21

C       0.017750    1.518811    0.056659
C      -0.011732   -0.004492    0.003991
C       0.710627   -0.529425   -1.244873
O       0.642593   -1.926966   -1.444604
C       1.364335   -2.688988   -0.485870
C       0.569658   -2.937367    0.781484
C       1.207019   -2.684712    2.137497
C       0.179104   -1.737896    1.604408
O       0.623114   -0.479127    1.198600
H       1.050820    1.880461    0.082562
H      -0.479643    1.952113   -0.816069
H      -0.487311    1.873671    0.958203
H      -1.052435   -0.360235   -0.017375
H       0.257329   -0.079018   -2.135153
H       1.762866   -0.201344   -1.193988
H       1.601981   -3.640315   -0.972932
H       2.313831   -2.187893   -0.249084
H      -0.162162   -3.737251    0.717771
H       0.942971   -3.325554    2.971022
H       2.232286   -2.330356    2.142711
H      -0.810501   -1.734870    2.063056
