15

C       0.004284    1.484214    0.004672
C       0.004700    0.029618   -0.004558
C       0.004122   -1.173987   -0.006679
C       0.015812   -2.642187   -0.040628
C      -1.404548   -3.224059    0.057871
O       0.559852   -3.138344   -1.258632
C       0.833626   -3.138664    1.102870
N       1.479821   -3.536214    1.974282
H       0.821162    1.874668    0.620478
H       0.125562    1.883458   -1.007868
H      -0.936489    1.874215    0.407170
H      -1.989196   -2.851708   -0.785279
H      -1.351466   -4.313774    0.010545
H      -1.878284   -2.921192    0.993013
H       1.402842   -2.695052   -1.410341
