18

C      -0.064858    1.633558   -0.227512
C       0.041232    0.116343   -0.050119
C      -1.306318   -0.583955    0.184811
C      -1.275065   -2.119204    0.144402
C      -2.265529   -2.534710    1.203949
N      -2.791602   -3.665211    1.350986
O      -2.510111   -1.451180    2.038584
C      -1.924542   -0.295603    1.551023
O      -1.962593    0.721957    2.171871
H       0.924148    2.070670   -0.393332
H      -0.688059    1.883629   -1.093555
H      -0.507649    2.100439    0.654292
H       0.494187   -0.329799   -0.943729
H       0.712950   -0.119423    0.784744
H      -2.032361   -0.211157   -0.551254
H      -1.529844   -2.556082   -0.821317
H      -0.283183   -2.493775    0.424307
H      -3.417162   -3.678756    2.158136
