17

C      -0.092259    1.498852    0.005625
C       0.011176   -0.001107   -0.024284
C       0.680708   -0.682238   -1.256859
C       0.108797   -2.125296   -1.151147
C      -0.760460   -1.968921    0.109673
O       0.136886   -1.914577    1.249586
C       0.672082   -0.658272    1.200262
O       1.498716   -0.241813    1.955200
O      -1.273507   -0.665417    0.015671
H       0.907933    1.929582    0.101370
H      -0.555873    1.874804   -0.910142
H      -0.686107    1.825088    0.862912
H       0.351003   -0.179826   -2.168768
H       1.770793   -0.639089   -1.212309
H      -0.511352   -2.386693   -2.010954
H       0.870932   -2.894837   -1.019597
H      -1.540363   -2.700570    0.307536
