15

C       0.074237    1.291760    0.168288
O       0.265663   -0.122725    0.041964
C       0.644346   -0.547576   -1.155997
N       0.916411    0.212938   -2.129822
N       0.712951   -1.970468   -1.164020
C       1.469203   -2.760803   -1.976636
C       1.141899   -4.035128   -1.607505
N       0.209872   -3.975134   -0.607387
N      -0.049971   -2.738727   -0.332966
H       1.014281    1.821327   -0.004293
H      -0.667287    1.642809   -0.553376
H      -0.274655    1.443443    1.189156
H       1.129005   -0.302372   -2.978469
H       2.167691   -2.361385   -2.691205
H       1.511378   -4.974993   -1.983281
