16

C       0.007055   -1.246509    0.028970
C      -0.022901   -0.045585    0.067007
C      -0.017682    1.410809    0.105132
C       1.399164    2.006119   -0.104983
C       1.409239    3.502690   -0.051410
C       1.519524    4.399702   -1.068172
O       1.466443    5.658936   -0.610379
N       1.313478    5.627863    0.771347
C       1.280979    4.357531    1.085084
H       0.016874   -2.307838   -0.001502
H      -0.690655    1.807713   -0.664601
H      -0.418921    1.757645    1.065551
H       2.067110    1.595188    0.659457
H       1.785117    1.664605   -1.069939
H       1.644968    4.291974   -2.134879
H       1.171994    4.079511    2.124808
