20

C       0.262866    1.330208    0.408976
C      -0.211442   -0.040832   -0.085206
C       0.562516   -0.596141   -1.307175
C       0.309336   -2.100603   -1.499440
N       1.081527   -2.684816   -2.578880
C       2.148894   -3.495831   -2.364548
O       2.560780   -3.843820   -1.276252
C       0.228841    0.189812   -2.558818
O      -0.138719   -0.298645   -3.601879
H       1.326660    1.307268    0.668196
H       0.119300    2.116787   -0.337961
H      -0.291478    1.627687    1.303984
H      -0.103888   -0.768574    0.727294
H      -1.283047   -0.006293   -0.319797
H       1.637232   -0.440847   -1.122812
H       0.589477   -2.635805   -0.589974
H      -0.757905   -2.268620   -1.684198
H       0.842894   -2.405148   -3.517225
H       2.613450   -3.820388   -3.316721
H       0.335203    1.292765   -2.470743
