19

C      -0.553615    1.442878   -0.015863
C       0.144318    0.085492    0.000585
C       1.180169   -0.106709   -1.119896
O       2.134640   -1.053429   -0.650716
C       1.932357   -1.319035    0.745149
C       3.283979   -1.406864    1.437232
C       1.003875   -0.204494    1.240404
H       0.172169    2.257683    0.087841
H      -1.099380    1.599398   -0.952699
H      -1.274111    1.530099    0.803742
H      -0.611595   -0.706002   -0.087505
H       0.733096   -0.475078   -2.051334
H       1.685011    0.846307   -1.345940
H       1.417122   -2.289536    0.842354
H       3.813650   -0.451437    1.367205
H       3.160123   -1.662151    2.495009
H       3.904020   -2.176918    0.969579
H       1.591549    0.683601    1.507933
H       0.419701   -0.498514    2.116738
