20

C       0.246082    1.094239    0.267801
N       0.081173   -0.339726    0.158378
C      -1.088077   -0.777104    0.011480
O      -1.318552   -2.096665   -0.145912
C      -2.686135   -2.523547   -0.116146
C      -2.751918   -3.901568   -0.778272
C      -2.448556   -4.823039    0.406124
O      -3.131506   -4.228955    1.505789
C      -3.156577   -2.817400    1.327576
H       0.750354    1.335374    1.210457
H       0.894661    1.453250   -0.539601
H      -0.699573    1.660146    0.226815
H      -1.993956   -0.149642   -0.024758
H      -3.310471   -1.773595   -0.613695
H      -3.764941   -4.084492   -1.148841
H      -2.045590   -3.983897   -1.605743
H      -2.828746   -5.840752    0.285772
H      -1.365474   -4.870340    0.593160
H      -2.490766   -2.319203    2.044625
H      -4.180649   -2.465163    1.501242
