18

C       0.033014    1.493645   -0.079698
C      -0.006511   -0.006770   -0.025398
O       0.785965   -0.615731   -1.047294
C       0.725466   -1.969349   -0.571742
C       1.393528   -1.832769    0.813030
C       0.346079   -0.833224    1.287415
N      -0.967566   -1.587893    1.194730
C      -0.765381   -2.161236   -0.180342
C      -1.327673   -0.803491   -0.027886
H       1.053984    1.858478    0.065969
H      -0.322015    1.850682   -1.051681
H      -0.604184    1.922028    0.699104
H       1.144858   -2.654767   -1.304685
H       1.377771   -2.749536    1.408274
H       2.407793   -1.435081    0.738060
H       0.479413   -0.307028    2.230090
H      -1.353039   -3.032881   -0.435822
H      -2.336773   -0.481541   -0.261016
