18

C       0.028436    1.601043    0.134577
C       0.024387    0.068901    0.051451
C       0.737385   -0.563667    1.254699
C      -1.408067   -0.466175   -0.065723
C      -2.195742   -0.230035   -1.370471
O      -2.282927   -1.675178   -1.593292
C      -1.564421   -1.941672   -0.454756
O      -1.228214   -3.005684   -0.042172
H       1.052886    1.983317    0.183514
H      -0.456369    2.059301   -0.734053
H      -0.498141    1.944710    1.032684
H       0.562888   -0.226539   -0.860288
H       0.257037   -0.262071    2.193176
H       0.712831   -1.654878    1.200143
H       1.781992   -0.240098    1.297868
H      -1.979318   -0.224805    0.837076
H      -3.191387    0.207518   -1.277552
H      -1.639996    0.247476   -2.181096
