21

C       0.151263    1.587249   -0.286272
C       0.089198    0.087637   -0.028022
C       0.896498   -0.910022   -0.913198
C       1.217014   -1.766432    0.349612
C       2.633344   -1.600079    0.915514
O       3.654101   -1.451977   -0.060431
C       2.200067   -0.263717    1.617084
O       2.834146    0.868175    1.072472
C       0.707195   -0.565411    1.236177
H       1.178508    1.951977   -0.282889
H      -0.308453    1.827277   -1.252415
H      -0.400184    2.137760    0.484810
H      -0.962285   -0.226027   -0.049157
H       0.330110   -1.421123   -1.694924
H       1.788764   -0.477891   -1.371674
H       0.776714   -2.763764    0.374960
H       2.891278   -2.387048    1.633187
H       4.506202   -1.597868    0.362528
H       2.354139   -0.256641    2.702651
H       3.366794    0.533544    0.335260
H       0.054752   -0.697451    2.101679
