18

C      -0.125646    1.514831    0.173837
C       0.062609    0.011072   -0.028854
C      -1.244491   -0.747885   -0.128200
C      -1.370165   -1.684184    0.808550
C      -0.182437   -1.747057    1.739815
C       0.805180   -0.730836    1.136073
O       1.908045   -1.392542    0.465048
C       1.840323   -1.002034   -0.831121
N       0.909422   -0.238848   -1.223016
H       0.843421    2.014849    0.265942
H      -0.648899    1.949549   -0.682482
H      -0.712711    1.714892    1.076072
H      -1.966185   -0.521957   -0.904522
H      -2.227391   -2.338448    0.924132
H      -0.456803   -1.474963    2.767199
H       0.271979   -2.742504    1.791129
H       1.241198   -0.063428    1.883931
H       2.633240   -1.401154   -1.454860
