19

C      -0.046322    1.397316    0.001862
O      -0.035344   -0.009825   -0.026421
C       0.700862   -0.531063   -1.112829
C       0.608106   -2.057069   -1.064577
C      -0.809713   -2.584119   -1.212312
C      -0.924975   -3.465613   -2.208704
C       0.384249   -3.619716   -2.911496
O       0.852507   -2.389591   -3.519610
C       1.340330   -2.739025   -2.220686
H       0.969507    1.811878    0.102676
H      -0.499043    1.821128   -0.908294
H      -0.639032    1.703345    0.867437
H       0.300120   -0.169061   -2.071523
H       1.755641   -0.212126   -1.050548
H       1.038332   -2.386173   -0.108679
H      -1.613228   -2.221534   -0.583358
H      -1.830302   -3.978305   -2.509181
H       0.667324   -4.524933   -3.439637
H       2.407207   -2.938448   -2.162008
