17

C      -0.325230    1.531827   -0.017588
C       0.028322    0.056161    0.010923
O       0.924553   -0.239254   -1.062320
C       1.517476   -1.497842   -0.783608
C       1.754083   -1.508394    0.720472
O       2.886655   -0.659396    1.108222
C       2.053906    0.310004    1.609393
O       2.359768    1.342957    2.110401
C       0.767905   -0.451148    1.264892
H       0.562969    2.147993    0.139183
H      -0.768564    1.788499   -0.983046
H      -1.050263    1.763436    0.768176
H      -0.886647   -0.551371   -0.103054
H       0.840034   -2.326849   -1.049255
H       2.437073   -1.585924   -1.366301
H       1.828855   -2.489717    1.187443
H       0.125216   -0.693031    2.110233
