18

C       0.006768    1.625977    0.008288
C       0.125878    0.101094    0.026070
C       0.857923   -0.522334   -1.193952
O       1.832956    0.408677   -1.636958
C       1.523992   -1.809008   -0.639005
C       1.669921   -1.521728    0.829556
C       0.912637   -0.480902    1.198735
C       0.784578    0.014485    2.524310
N       0.652320    0.442874    3.592921
H       0.990181    2.095572   -0.042748
H      -0.571646    1.955997   -0.859398
H      -0.503003    1.976281    0.910473
H      -0.887305   -0.324342    0.061708
H       0.148656   -0.746654   -2.002154
H       2.276911    0.034773   -2.404026
H       0.888045   -2.692011   -0.796582
H       2.478715   -2.016116   -1.136226
H       2.286140   -2.108203    1.500177
