18

C      -0.028912    1.349762   -0.007818
O       0.028035   -0.081846    0.043180
C       0.660135   -0.580618    1.102788
N       1.209400    0.061096    2.058415
C       1.756054   -0.967826    2.953351
C       1.415491   -2.319677    2.324176
N       0.721577   -1.965973    1.163722
N       1.707399   -3.465703    2.774288
C       1.277559   -4.620983    2.003183
H       0.979159    1.770911   -0.035128
H      -0.572590    1.589806   -0.921464
H      -0.551258    1.742178    0.868200
H       2.840064   -0.854864    3.065852
H       1.321500   -0.887071    3.955965
H       0.340591   -2.588301    0.473172
H       1.720274   -4.639093    0.994391
H       1.586902   -5.536745    2.512694
H       0.182906   -4.662584    1.884516
