14

C      -0.032102    1.537514    0.113852
C       1.500125    1.500198   -0.034495
C       1.995822    0.587758    1.114512
C       2.075687   -0.656015    0.241555
C       0.857360   -0.436801    1.087059
N      -0.019899    0.033002   -0.030861
C       1.302659    0.158181   -0.819803
H      -0.473241    1.915433    1.041226
H      -0.539111    1.976306   -0.751230
H       2.118999    2.335880   -0.359817
H       2.557319    0.841534    2.002872
H       2.784849   -1.470327    0.193716
H       0.482732   -0.972500    1.949232
H       1.279318    0.034126   -1.900680
