15

O       0.052656    0.006755   -0.006544
C      -0.017109    1.200972    0.006861
C      -1.170441    2.180895    0.039514
C      -0.686628    3.248271    1.088794
C      -0.949092    4.368595    0.058750
C      -0.726435    3.270707   -1.004293
O       0.700022    3.041531   -1.150680
C       1.064180    2.297387   -0.001753
O       0.744239    3.016522    1.175918
H      -2.196885    1.833389    0.055366
H      -1.098831    3.283652    2.096134
H      -1.989875    4.705117    0.082149
H      -0.263117    5.217149    0.054795
H      -1.176624    3.327489   -1.994244
H       2.117126    2.032216   -0.024610
