11

N      -0.090988    1.248845    0.067196
C      -0.032039   -0.076842   -0.211165
O       0.692814   -0.607915   -1.015444
O      -0.912543   -0.746403    0.606222
C      -0.979155   -2.153271    0.400416
C      -2.235132   -2.520012   -0.264383
N      -3.223810   -2.821877   -0.779005
H       0.398211    1.869942   -0.552914
H      -0.845777    1.609069    0.624915
H      -0.130423   -2.476965   -0.208767
H      -0.933955   -2.634525    1.381170
