23

C      -0.263441    1.359531    0.025456
O       0.010738   -0.018522   -0.041154
C       0.747852   -0.540377    1.062333
C      -0.106583   -0.625578    2.334081
C       1.259943   -1.889471    0.646399
C       2.536149   -2.475365    1.182222
C       2.404524   -2.255539   -0.301585
C       1.559178   -3.369064   -0.927788
C       0.389180   -3.006795    0.046332
H       0.654786    1.950521    0.174828
H      -0.710297    1.645211   -0.930612
H      -0.970367    1.618711    0.827408
H       1.612986    0.118434    1.255818
H       0.479481   -1.053802    3.152765
H      -0.459209    0.358822    2.654358
H      -0.978973   -1.263432    2.161552
H       3.191369   -1.777765    1.696117
H       2.551362   -3.482778    1.594534
H       3.077335   -1.594706   -0.835686
H       1.298921   -3.175489   -1.970453
H       1.970057   -4.381563   -0.852052
H       0.060229   -3.788542    0.739303
H      -0.478327   -2.610401   -0.483231
