22

C       0.003296    1.573254    0.108971
C      -0.046633    0.042454   -0.044555
C       0.694375   -0.469944   -1.246540
C       0.135711   -0.843290   -2.445785
N       1.148797   -1.232049   -3.286555
C       2.362756   -1.122030   -2.646977
C       3.633639   -1.484535   -3.343639
C       2.114739   -0.647561   -1.372963
C       3.130199   -0.371899   -0.303631
H       1.033912    1.929613    0.203305
H      -0.435820    2.063939   -0.765433
H      -0.547849    1.899777    0.997557
H       0.357560   -0.418681    0.866266
H      -1.094471   -0.275598   -0.103462
H      -0.895484   -0.872523   -2.761820
H       1.025268   -1.569884   -4.224657
H       3.859512   -0.807705   -4.178221
H       4.477038   -1.436460   -2.651652
H       3.603097   -2.503287   -3.750901
H       3.265062    0.701914   -0.121255
H       2.837762   -0.819530    0.653796
H       4.111974   -0.778850   -0.562801
