13

O      -0.184129    0.027790   -0.000174
C      -0.018474    1.219742    0.007903
C       1.288943    1.893715   -0.001606
N       2.486845    1.350833   -0.020105
C       3.369504    2.396423   -0.021389
C       4.832874    2.252383   -0.039353
O       5.433562    1.207622   -0.054984
C       2.683355    3.604391   -0.003280
N       1.369393    3.274281    0.008519
H      -0.878848    1.930516    0.023585
H       5.367258    3.230666   -0.037178
H       3.024515    4.627290    0.001457
H       0.593234    3.917969    0.022564
