22

C      -0.136108    1.536960   -0.055702
C       0.011998    0.015998    0.047680
C       0.744616   -0.484729    1.310100
C      -0.001614   -0.116403    2.599578
C       0.983875   -1.990917    1.182785
C       1.633829   -2.792782    2.335251
C       0.348230   -3.639910    2.278705
O      -0.237519   -2.770691    1.288605
H       0.838054    2.035930    0.007216
H      -0.589990    1.817693   -1.011425
H      -0.769819    1.945214    0.737166
H      -0.975854   -0.459422    0.007115
H       0.558247   -0.344959   -0.833484
H       1.742603   -0.018657    1.331766
H      -0.982559   -0.600116    2.621523
H       0.548454   -0.427514    3.492974
H      -0.149311    0.963633    2.676890
H       1.470043   -2.188281    0.215354
H       2.562567   -3.308300    2.086359
H       1.772802   -2.236443    3.263178
H       0.481608   -4.660428    1.896622
H      -0.253585   -3.681529    3.194171
