21

C      -0.201580    1.398915   -0.099141
C      -0.298345   -0.094593   -0.355482
O      -1.299331   -0.630960    0.501059
C      -1.481530   -2.000453    0.340504
C      -2.743129   -2.582425    0.903786
C      -2.555670   -2.495502   -0.585889
C      -3.355805   -1.681395   -1.593937
O      -3.176186   -2.713385   -2.592538
C      -2.499251   -3.579906   -1.654622
H       0.571302    1.844201   -0.732550
H      -1.154451    1.889422   -0.317498
H       0.051223    1.592354    0.947093
H      -0.547583   -0.297225   -1.407917
H       0.666490   -0.586794   -0.150914
H      -0.566383   -2.592889    0.415751
H      -2.693372   -3.553030    1.387181
H      -3.441689   -1.883233    1.352929
H      -4.415759   -1.534153   -1.345895
H      -2.926504   -0.721223   -1.904489
H      -1.500431   -3.871323   -2.006153
H      -3.082983   -4.486418   -1.441723
