21

C       0.020593    1.734931   -0.018239
C       0.024669    0.204538   -0.010550
O       0.750165   -0.201785    1.146062
C      -1.396609   -0.400142    0.004889
C      -2.209087   -0.079614    1.253826
O      -3.421002   -0.818957    1.166775
C       0.747420   -0.316842   -1.253492
C       2.203411   -0.472269   -1.290655
O       1.344075   -1.610018   -1.095936
H       1.044645    2.113347   -0.073660
H      -0.542869    2.120994   -0.873320
H      -0.433185    2.123365    0.896559
H       0.986842   -1.127859    0.993235
H      -1.951034   -0.068568   -0.881485
H      -1.310959   -1.491204   -0.069439
H      -1.627317   -0.356680    2.143595
H      -2.414640    1.000302    1.314458
H      -3.924374   -0.659712    1.970344
H       0.214330   -0.183168   -2.195349
H       2.725527   -0.450335   -2.245065
H       2.786200   -0.187137   -0.418727
