14

N      -0.127762    1.165271    0.049751
C      -0.200005   -0.173757    0.277673
O       0.163785   -0.750944    1.273178
O      -0.699998   -0.801829   -0.832324
C      -0.909727   -2.186206   -0.666421
C      -2.201430   -2.478562    0.086128
O      -2.942282   -1.628084    0.498096
C      -2.510761   -3.981349    0.290929
O      -3.520059   -4.361354    0.814134
H       0.046816    1.741409    0.855307
H      -0.673667    1.556549   -0.699351
H      -0.963724   -2.622497   -1.670899
H      -0.073254   -2.652124   -0.130973
H      -1.734369   -4.687710   -0.080939
