17

C      -0.080581    1.412609    0.076425
N      -0.020798   -0.020739   -0.168081
C      -1.205961   -0.736711   -0.093178
N      -2.400861   -0.161268   -0.073210
N      -3.279546   -1.219153   -0.018204
C      -2.656971   -2.423050   -0.032928
N      -3.341733   -3.639863   -0.062077
C      -1.305315   -2.154529   -0.069763
O      -0.286581   -3.080999    0.011417
H       0.924220    1.830828   -0.022924
H      -0.728008    1.878346   -0.670541
H      -0.483090    1.670405    1.067120
H       0.727709   -0.488121    0.325526
H      -4.253987   -1.044850   -0.187130
H      -4.008963   -3.735477    0.695976
H      -2.678417   -4.404570   -0.008567
H       0.163004   -3.117140   -0.840748
