20

C       0.222554    1.303781   -0.202792
C      -0.278325    0.128679    0.643733
C      -1.362258   -0.668945   -0.054592
C      -0.993364   -1.751656   -1.052728
C      -1.608632   -2.108046    0.278048
O      -0.813738   -2.670647    1.290993
C      -0.721657   -4.071864    1.239449
C       0.146272   -4.574166    0.154441
N       0.834393   -4.977056   -0.681511
H       0.998955    1.866641    0.324426
H       0.643941    0.954551   -1.151126
H      -0.590916    1.998969   -0.438504
H       0.553828   -0.536754    0.893350
H      -0.666184    0.501727    1.600224
H      -2.259049   -0.098184   -0.285172
H      -1.585786   -1.883257   -1.951352
H       0.063021   -1.965162   -1.171619
H      -2.636893   -2.471074    0.294316
H      -0.298552   -4.396393    2.195070
H      -1.711322   -4.541067    1.133077
