25

C      -0.108071    1.316226    0.123599
O       0.222433   -0.053200    0.009950
C       0.751474   -0.532325   -1.252109
C      -0.011061    0.026805   -2.456628
C       2.227183   -0.090145   -1.309136
O       2.957957   -0.543677   -0.188344
C       0.622855   -2.076817   -1.113923
C      -0.841220   -2.533053   -1.026232
C       1.376066   -2.864811   -2.194969
H       0.734676    1.982974   -0.106671
H      -0.955386    1.596543   -0.515080
H      -0.395201    1.475793    1.166393
H       0.175115    1.096220   -2.593044
H       0.308891   -0.477670   -3.372412
H      -1.088269   -0.120970   -2.348669
H       2.715235   -0.489913   -2.202234
H       2.267535    1.008589   -1.391100
H       2.384198   -0.383068    0.571987
H       1.099716   -2.308242   -0.155567
H      -0.890297   -3.582334   -0.717896
H      -1.394658   -1.937765   -0.296862
H      -1.350858   -2.457599   -1.993411
H       2.452936   -2.682895   -2.160197
H       1.222095   -3.937741   -2.041460
H       1.017474   -2.631644   -3.204117
