15

C       0.125219    1.384038    0.425172
C      -0.004090   -0.067855    0.048108
C      -1.172415   -0.744495    0.206230
C      -1.431058   -2.098099   -0.251886
N      -0.587025   -3.052818   -0.410352
C       0.728902   -2.844789    0.038519
O       1.224477   -3.481115    0.928373
N       1.452975   -1.909436   -0.721687
C       1.139281   -0.670345   -0.641484
H       0.915438    1.520660    1.172559
H       0.403548    1.991861   -0.443520
H      -0.806573    1.777426    0.836311
H      -2.033116   -0.200442    0.588653
H      -2.470298   -2.318467   -0.508274
H       1.785959    0.032177   -1.175058
