18

C      -0.013181    1.389585   -0.004983
O       0.008536   -0.015686   -0.019225
C      -1.281644   -0.588214    0.014410
C      -1.159716   -2.110858   -0.028744
C      -2.538324   -2.758988    0.146096
C      -0.473774   -2.576467   -1.318875
H       1.023261    1.735577   -0.031256
H      -0.546992    1.800856   -0.877009
H      -0.495207    1.783017    0.904716
H      -1.812299   -0.273461    0.930094
H      -1.880947   -0.231982   -0.843823
H      -0.527546   -2.400254    0.821431
H      -3.211108   -2.482625   -0.674694
H      -2.457617   -3.850384    0.151134
H      -3.013205   -2.453945    1.084797
H      -1.088315   -2.334385   -2.194928
H       0.494907   -2.086674   -1.440760
H      -0.317173   -3.660060   -1.312614
