12

N       0.180811    1.230244    0.258524
C      -0.248859    0.076991   -0.300069
O      -0.554430   -0.099308   -1.451969
O      -0.274223   -0.899513    0.672737
C      -0.663711   -2.149873    0.325681
C      -1.062618   -2.742307   -0.832231
O      -1.321999   -4.022910   -0.545936
N      -1.069875   -4.203889    0.830991
N      -0.689081   -3.098357    1.309923
H       0.192921    2.056269   -0.311847
H       0.349011    1.295738    1.246564
H      -1.194753   -2.399902   -1.839956
