16

C      -0.008754    1.536783    0.015594
C       0.084052    0.045558    0.000427
N      -0.824937   -0.865137    0.714970
C       0.651042   -0.922518    1.015355
C       1.254300   -1.753901   -0.102275
O       2.061850   -2.631435   -0.163379
C       0.613115   -0.814046   -1.149236
C       0.156321   -1.012640   -2.520688
O       1.365576   -0.292969   -2.224810
H       0.901328    1.979719   -0.398379
H      -0.854540    1.881789   -0.589849
H      -0.147861    1.913695    1.033951
H      -1.238535   -0.339849    1.487901
H       1.024067   -0.753271    2.017114
H       0.299819   -1.980567   -2.996529
H      -0.664655   -0.408578   -2.902967
