14

O      -0.061477    1.363021    0.200526
C       0.044701    0.020160    0.020520
C       0.165776   -0.751472   -1.101561
O       0.164458   -0.269093   -2.394325
C       0.182518   -2.126806   -0.668578
O       0.366760   -3.256470   -1.439086
C       0.083832   -2.118521    0.694991
O       0.092237   -3.114834    1.619272
N      -0.002368   -0.810720    1.117657
H      -0.049782    1.758683   -0.678670
H       0.990282   -0.532735   -2.816002
H      -0.365371   -3.319195   -2.063058
H       0.199049   -3.939677    1.131540
H      -0.090008   -0.511306    2.072424
