18

C       0.016848    1.413494    0.102971
C       0.047854   -0.088235   -0.054284
O       1.079405   -0.701935   -0.233169
C      -1.269170   -0.868205    0.010698
O      -1.016663   -2.233373   -0.191466
C      -2.004458   -0.635605    1.341151
C      -3.302354   -1.430597    1.415905
O      -3.922373   -1.117842    2.654638
H       0.958964    1.838486   -0.245418
H      -0.823472    1.855481   -0.440779
H      -0.113873    1.667973    1.161010
H      -1.904615   -0.481362   -0.807764
H      -0.052848   -2.295773   -0.302061
H      -1.356877   -0.933460    2.173829
H      -2.237832    0.427925    1.464324
H      -3.950411   -1.159231    0.565232
H      -3.075925   -2.501106    1.330518
H      -4.679579   -1.699928    2.765009
