23

C      -0.039965    1.578436    0.057618
C      -0.000391    0.046910    0.090621
C      -1.382504   -0.596810   -0.040589
C      -2.075292   -0.447193   -1.437926
C      -2.347710   -1.936423   -1.741181
O      -3.065939   -2.255978   -2.892351
C      -2.866819   -2.463214   -0.381834
C      -1.408290   -2.143295    0.058198
C      -0.983181   -2.600076   -1.367035
H       0.962606    2.004995    0.160804
H      -0.462687    1.948643   -0.882629
H      -0.655927    1.973984    0.873105
H       0.659386   -0.319456   -0.705995
H       0.452883   -0.282138    1.035232
H      -2.026873   -0.175539    0.741456
H      -2.999895    0.136202   -1.408322
H      -1.412873    0.004019   -2.187247
H      -2.680924   -1.776346   -3.633603
H      -3.686259   -1.922596    0.101524
H      -3.077642   -3.534203   -0.413129
H      -0.973353   -2.589906    0.952075
H      -1.015866   -3.684894   -1.487336
H      -0.064395   -2.196242   -1.802243
