16

C       0.150926    1.325151   -0.170739
N      -0.215331   -0.039756    0.164623
H      -0.520128   -0.604986   -0.614447
C       0.521577   -0.758133    1.076254
N       1.230250   -0.178647    2.084823
C       1.813720   -1.158791    2.884734
C       1.476494   -2.373187    2.370233
C       0.656228   -2.141020    1.212492
C       0.078652   -3.073942    0.330037
N      -0.411465   -3.806648   -0.426357
H       1.198097    1.432356   -0.492124
H      -0.497085    1.673167   -0.976917
H      -0.018989    1.991208    0.683951
H       1.289115    0.810362    2.249575
H       2.416952   -0.884636    3.733351
H       1.771053   -3.338621    2.748316
