21

C      -0.104221    1.701366    0.079012
C      -0.017362    0.185217    0.284952
C      -1.336188   -0.537047   -0.009090
C      -1.792752   -0.527675   -1.481027
C      -2.767379   -1.715122   -1.555357
O      -2.497127   -2.548915   -0.420132
C      -1.377319   -2.063016    0.280402
C      -0.091088   -2.757114   -0.158007
O       0.047764   -3.316525   -1.214481
H       0.844277    2.185924    0.328819
H      -0.341269    1.951879   -0.959752
H      -0.881253    2.142073    0.713436
H       0.777500   -0.221756   -0.353423
H       0.284326   -0.018761    1.320644
H      -2.125976   -0.089500    0.608261
H      -2.262797    0.413795   -1.772675
H      -0.932924   -0.694089   -2.138268
H      -3.814199   -1.393005   -1.493996
H      -2.638538   -2.298607   -2.472674
H      -1.519831   -2.265621    1.350653
H       0.741315   -2.701846    0.582522
