14

C       0.012409    1.438100    0.041988
C       1.509967    1.898216   -0.062625
C       2.206428    0.574707    0.063831
C       1.293227   -0.436890   -0.056167
N      -0.014284   -0.030624   -0.284936
N       2.015733   -1.566711   -0.029582
N       3.358055   -1.252560    0.121253
N       3.448755    0.047428    0.158395
H      -0.353757    1.599669    1.063200
H      -0.641803    1.978659   -0.645332
H       1.707066    2.374753   -1.030309
H       1.754195    2.626451    0.715416
H      -0.737911   -0.537382    0.209565
H       1.743674   -2.534067   -0.073898
