17

C      -0.068761    1.619480    0.253288
C      -0.170914    0.102621    0.325938
C      -1.337665   -0.588700   -0.273994
N      -0.004368   -0.699151   -0.891795
C       1.325139    2.084903   -0.000285
N       1.843922    2.482830   -1.120126
C       3.175596    2.743012   -0.815908
C       3.388920    2.482471    0.492963
O       2.206210    2.057479    1.033605
H      -0.688082    1.995291   -0.566184
H      -0.440853    2.058817    1.186101
H       0.303341   -0.337003    1.201004
H      -1.717301   -1.507101    0.164692
H      -2.092562    0.024741   -0.760427
H       0.064834   -0.084614   -1.700631
H       3.870680    3.098454   -1.559560
H       4.231493    2.538759    1.159898
