18

C      -0.131779    1.521049   -0.011190
C      -0.004322    0.021491    0.026608
C      -0.816314   -0.798012    1.017079
C       0.688874   -0.669598    1.158255
O       1.532221   -1.772050    0.891379
C       1.564567   -2.319071   -0.356197
N       2.394329   -3.218289   -0.675003
C       0.524487   -1.850499   -1.349486
O       0.242068   -0.465447   -1.265860
H       0.767441    1.967970   -0.445605
H      -0.990889    1.813100   -0.623242
H      -0.272447    1.925286    0.994676
H      -1.444287   -0.270371    1.726755
H      -1.202755   -1.763855    0.713274
H       1.101065   -0.101153    1.984149
H       2.994316   -3.446572    0.120833
H       0.905868   -2.039315   -2.352369
H      -0.392355   -2.446702   -1.221773
