18

O       0.120601    0.059018   -0.613894
C       0.025874    1.178407   -0.209705
C      -1.111752    2.055373    0.334155
N      -0.081940    3.046047    0.746555
C       1.009919    2.349611    0.003305
C       2.292856    2.128356    0.783435
C       2.235409    1.291905    2.079907
O       3.252877    0.393142    1.594618
C       3.259520    1.020975    0.296246
H      -1.797062    2.376072   -0.463112
H      -1.701927    1.637688    1.156891
H      -0.265239    3.990039    0.428197
H       1.244138    2.801782   -0.974852
H       2.791026    3.090210    0.932732
H       2.537970    1.799820    3.002099
H       1.281428    0.777768    2.257011
H       2.843206    0.362915   -0.476025
H       4.263809    1.344416   -0.000765
