17

C       0.006189    1.450871    0.018445
N       0.004333    0.000808    0.012173
C      -0.029741   -0.786314   -1.121437
C      -0.021013   -2.099765   -0.741507
C       0.020177   -2.112866    0.687322
C       0.042682   -3.247180    1.532528
N       0.061397   -4.170833    2.233468
C       0.035083   -0.792746    1.126371
C       0.076041   -0.249902    2.513942
H       0.909349    1.841760    0.497455
H      -0.022452    1.807701   -1.011749
H      -0.867605    1.843846    0.547602
H      -0.057069   -0.332886   -2.099131
H      -0.041047   -2.961789   -1.388033
H       0.966032    0.366487    2.690116
H      -0.800141    0.369605    2.741049
H       0.095124   -1.076783    3.226463
