18

O      -0.042359    0.562651    1.364817
C      -0.061630    1.358024    0.442019
C      -1.397950    1.942329   -0.000415
C      -1.605391    2.270375   -1.482558
C      -0.759427    3.445493   -1.984618
C       0.691932    3.096803   -2.320932
C       1.541115    2.433116   -1.275786
C       1.235731    1.743138   -0.167917
H      -2.156723    1.239514    0.354637
H      -1.537402    2.862835    0.586093
H      -1.419747    1.381486   -2.099654
H      -2.664749    2.515749   -1.617534
H      -1.215794    3.863227   -2.889290
H      -0.778515    4.247300   -1.235002
H       0.711227    2.443307   -3.208355
H       1.212870    4.008435   -2.642223
H       2.606035    2.498883   -1.500277
H       2.058165    1.315825    0.400793
