18

C       0.018910    1.557279   -0.019572
C       0.071808    0.050639   -0.002041
C       1.307606   -0.782192   -0.254244
C       2.557641   -0.142032    0.344304
N       1.861727   -0.049091    1.709233
H       2.343239   -0.573829    2.437268
H       1.674520    0.897492    2.046110
C       0.635317   -0.767660    1.104393
C      -1.232052   -0.707994   -0.564695
O      -2.057842    0.045240   -1.078750
O      -1.177753   -1.937714   -0.378345
H       0.952918    2.065338    0.269711
H      -0.241988    1.880194   -1.029092
H      -0.782817    1.911091    0.634432
H       1.312736   -1.603653   -0.954523
H       3.419977   -0.803354    0.442095
H       2.874788    0.840807   -0.012200
H       0.133574   -1.519678    1.694135
