17

C      -0.020993    1.417634   -0.026907
N       0.001952   -0.023084   -0.092804
C      -1.203513   -0.827993   -0.087037
C      -0.712841   -2.235357   -0.476954
O      -0.875015   -2.339734   -1.884859
C       0.765322   -2.225134   -0.061859
C       1.163969   -0.747605   -0.081196
O       2.288269   -0.291023   -0.061590
H       1.014231    1.763277   -0.036932
H      -0.555237    1.843229   -0.885040
H      -0.509561    1.769237    0.891312
H      -1.686528   -0.825521    0.901323
H      -1.929920   -0.469693   -0.824173
H      -1.291315   -3.012986    0.038425
H      -0.445223   -3.150173   -2.176419
H       0.903900   -2.607709    0.956005
H       1.406475   -2.810860   -0.724823
