17

C       0.017945    1.381017    0.031938
N       0.282870   -0.040289    0.027992
C      -0.185850   -0.766842    1.197534
C       0.148340   -0.674513   -1.201471
C      -0.025876   -0.109357   -2.448721
N      -0.023154   -1.184260   -3.326954
C       0.127530   -2.309859   -2.589745
N       0.233578   -2.044715   -1.306162
H       0.645203    1.880510   -0.714038
H      -1.036771    1.629688   -0.186088
H       0.269229    1.793164    1.013046
H      -1.284047   -0.738904    1.306877
H       0.123225   -1.808506    1.117989
H       0.258868   -0.327716    2.096153
H      -0.146958    0.902473   -2.790528
H      -0.125187   -1.130800   -4.325572
H       0.153856   -3.294685   -3.031608
