18

C       0.090655    1.424040    0.045673
N       0.042861   -0.023450   -0.038698
C       0.612435   -0.666745   -1.111683
N       1.331448   -0.054308   -1.970411
C       1.979038   -0.747411   -3.022603
C       2.136534   -0.005869   -4.333338
C       3.334464   -0.226154   -3.454339
C       0.342981   -2.098195   -1.139587
N       0.127600   -3.233548   -1.187771
H       1.130916    1.758410    0.050498
H      -0.409680    1.909400   -0.802635
H      -0.388788    1.734456    0.975846
H      -0.732896   -0.491719    0.400214
H       1.829154   -1.824800   -3.086449
H       2.044624   -0.580850   -5.247874
H       1.718102    0.992598   -4.373913
H       3.718976    0.624346   -2.904416
H       4.079010   -0.954783   -3.754610
