16

C      -0.013458    1.533691    0.125842
C       0.105336    0.017423    0.000560
C       0.724443   -0.458037   -1.278362
N       1.115427    0.373823   -2.182380
C       1.674256   -0.172333   -3.327063
N       1.860938   -1.408219   -3.619556
O       1.442435   -2.324937   -2.649432
C       0.870964   -1.917303   -1.466559
N       0.493096   -2.752260   -0.590770
H       0.966427    2.014719    0.070970
H      -0.626321    1.951725   -0.676786
H      -0.473125    1.793633    1.083073
H       0.689050   -0.412998    0.824745
H      -0.871765   -0.474697    0.092087
H       2.003962    0.526289   -4.089178
H       0.673920   -3.710914   -0.894681
