20

C      -0.126000    1.596299    0.057408
C       0.040652    0.087402   -0.018203
C       0.857709   -0.592372   -1.167758
C       2.247301    0.026996   -0.988525
C       3.165305   -0.949444   -0.340334
C       2.502091   -2.309900   -0.322173
C       1.076498   -1.803196   -0.190016
C       1.093514   -0.647707    0.854681
N       2.394753    0.014962    0.498231
H       0.838375    2.108737    0.023791
H      -0.742187    1.964002   -0.770875
H      -0.623308    1.884009    0.990276
H      -0.929998   -0.410792    0.085101
H       0.467608   -0.709874   -2.178757
H       2.580005    0.906866   -1.526769
H       4.242297   -0.822821   -0.338036
H       2.680332   -2.871718   -1.245448
H       2.815309   -2.925010    0.528696
H       0.260521   -2.519126   -0.121927
H       0.980175   -0.799250    1.928175
