19

C      -0.008877    1.493267   -0.024673
C      -0.011258    0.037593   -0.010324
C      -0.016737   -1.167899    0.002099
C       0.001107   -2.600498    0.023801
C      -0.473303   -3.397501   -1.193229
C      -1.266726   -3.473241    0.076811
C      -0.991424   -4.626221    1.039469
C       0.469019   -4.449880    1.401060
C       0.989686   -3.340088    0.876581
H       0.750037    1.893241    0.657228
H       0.206931    1.886932   -1.024555
H      -0.977548    1.899101    0.288899
H      -0.903946   -2.826525   -2.008396
H       0.133707   -4.246043   -1.492478
H      -2.237251   -2.993170    0.092367
H      -1.631994   -4.569008    1.929629
H      -1.188497   -5.603659    0.579914
H       1.010673   -5.169974    2.003757
H       2.006278   -2.987783    1.003323
