21

C      -0.067928    1.494564    0.194001
C       0.043158   -0.023084    0.019079
C       0.721341   -0.470771   -1.289190
C       2.182848    0.026355   -1.396944
C       2.971835   -0.644689   -2.490513
C       2.730174   -1.897655   -2.878281
C       1.642715   -2.686480   -2.251234
O       1.633193   -2.765529   -0.802406
C       0.634959   -1.976734   -1.446825
H       0.914528    1.971360    0.262890
H      -0.601603    1.951927   -0.647188
H      -0.616351    1.741811    1.108163
H       0.593771   -0.457337    0.863443
H      -0.963029   -0.460471    0.055656
H       0.153839   -0.047202   -2.132707
H       2.191642    1.110557   -1.545924
H       2.685200   -0.152250   -0.436005
H       3.782250   -0.080810   -2.944597
H       3.317922   -2.371028   -3.658544
H       1.366027   -3.622485   -2.732367
H      -0.372904   -2.394066   -1.391721
