15

C       0.029361    1.523817    0.010579
C      -0.011300    0.005761    0.002596
C      -1.409264   -0.587449    0.006635
O       0.699684   -0.476600   -1.153883
C       1.773827   -1.209122   -0.780201
O       2.542142   -1.731646   -1.523509
C       1.781738   -1.217368    0.753850
O       2.557698   -1.747756    1.483525
O       0.711593   -0.488911    1.146446
H       1.065040    1.871272    0.006438
H      -0.479402    1.913013   -0.874332
H      -0.469020    1.903265    0.905576
H      -1.955674   -0.254818   -0.878900
H      -1.353737   -1.678438    0.000751
H      -1.946686   -0.263967    0.901018
