17

N       0.071157    1.452982    0.086966
C       0.071627    0.052570    0.017488
C      -1.009990   -0.755942   -0.174987
O      -0.604431   -2.070904   -0.286705
C       0.745229   -2.074667   -0.141831
C       1.217489   -0.815102    0.041020
N      -2.353887   -0.413059   -0.281436
C      -3.196501   -1.088977   -1.280114
C      -3.377770   -1.363333    0.171042
H       0.648456    1.806686    0.840249
H      -0.873973    1.803435    0.193943
H       1.220723   -3.040498   -0.190090
H       2.249058   -0.525769    0.169844
H      -3.893124   -0.444201   -1.807911
H      -2.730286   -1.865514   -1.879234
H      -3.035961   -2.324484    0.542786
H      -4.209440   -0.920833    0.711881
