17

C       0.073452    1.465180   -0.216637
C       0.140908   -0.037296   -0.409816
O       1.121845   -0.606155   -0.815022
C      -1.154853   -0.792527   -0.065478
N      -1.019262   -2.224943   -0.038262
C      -0.751022   -3.060272   -1.103214
C      -0.715405   -4.323823   -0.579114
N      -0.950278   -4.294545    0.777459
C      -1.123838   -3.027983    1.065110
H       0.951962    1.933524   -0.660984
H      -0.838560    1.881840   -0.657513
H       0.045962    1.697428    0.854696
H      -1.520358   -0.455252    0.910076
H      -1.916757   -0.489840   -0.797599
H      -0.595021   -2.675654   -2.096622
H      -0.531801   -5.251966   -1.098436
H      -1.338889   -2.619306    2.042241
