19

C       0.067048    1.643863    0.186626
C       0.014835    0.138487    0.321135
C       1.119862   -0.768809   -0.134800
O       2.404724   -0.161749    0.037986
C       2.210938   -0.133374    1.475298
C       0.787764   -0.676346    1.345605
C       0.164634   -1.656361    2.269615
C      -1.036780   -1.348364    3.063264
O      -1.117958   -2.166351    1.894700
H       1.100280    1.998727    0.169802
H      -0.403742    1.958702   -0.750430
H      -0.459098    2.141991    1.007957
H      -0.960682   -0.316239    0.159228
H       1.033302   -1.570962   -0.859198
H       2.895311   -0.836155    1.966150
H       2.345194    0.868200    1.900081
H       0.842549   -2.418049    2.661153
H      -1.211856   -1.864221    4.006199
H      -1.491884   -0.363386    2.973238
