16

C      -0.034018    1.456071    0.031701
C       1.404990    2.005265    0.038202
N       2.094815    1.510574    1.228771
C       1.951949    0.157191    1.446800
N       2.730442   -0.582824    2.200969
O       2.168293   -1.869010    2.138578
C       1.066554   -1.836432    1.363969
C       0.869984   -0.586208    0.874449
N      -0.108960   -0.010443    0.042931
H      -0.550519    1.837231    0.920416
H      -0.569095    1.824503   -0.846726
H       1.913514    1.712063   -0.895285
H       1.380609    3.098570    0.077359
H       3.019814    1.877117    1.400899
H       0.544338   -2.771894    1.239807
H      -0.100047   -0.396846   -0.892433
