15

C       0.023935    1.564981    0.195193
C       1.446657    1.986963   -0.086741
C       2.216587    0.982369   -0.498899
C       1.468563   -0.329081   -0.549330
N       1.994499   -1.323365    0.413733
C       1.117044   -1.403488    1.323502
O      -0.028642   -0.683561    1.239572
C       0.046657    0.038286   -0.018031
H      -0.302170    1.809638    1.212194
H      -0.685916    2.050476   -0.486431
H       1.774974    3.013694    0.032351
H       3.266922    1.048122   -0.755249
H       1.470947   -0.770819   -1.551571
H       1.187050   -2.021077    2.212548
H      -0.779171   -0.317184   -0.637776
