21

C      -0.126868    1.590168    0.150588
C      -0.064081    0.077323    0.081144
C      -1.350170   -0.596138   -0.358682
O      -1.735411   -0.225014   -1.677557
C       1.244010   -0.579629   -0.381253
C       0.809536   -0.663457    1.046880
C       1.492427   -0.184551    2.324564
C       1.017348   -1.538543    2.894527
O       0.413903   -1.908934    1.632582
H       0.843746    2.028261    0.401965
H      -0.447220    1.997141   -0.813281
H      -0.850076    1.919301    0.906501
H      -1.258781   -1.685424   -0.254771
H      -2.178007   -0.276888    0.284640
H      -1.018251   -0.484283   -2.266079
H       1.175453   -1.497034   -0.959555
H       2.086669    0.056169   -0.636376
H       2.574946   -0.060535    2.257851
H       1.054135    0.701447    2.788023
H       1.808300   -2.239137    3.183852
H       0.273858   -1.481818    3.697543
