13

F      -0.359302   -0.001737    0.117540
C      -0.094805    1.310468    0.170232
F       1.221569    1.449482    0.390849
F      -0.362131    1.839514   -1.029021
C      -0.895484    2.009559    1.243503
C      -2.240987    1.465295    1.636143
N      -1.106525    1.374367    2.519945
C      -0.542280    0.189862    2.988209
O      -1.180562   -0.746240    3.390912
H      -0.710919    3.081007    1.260141
H      -3.023710    2.160793    1.922772
H      -2.571682    0.544867    1.164031
H       0.560736    0.247688    3.018793
