13

O       0.095799    1.359077    0.052135
C       0.070668    0.009986    0.054723
N       0.069016   -0.707131   -1.054960
N       0.066688   -2.023126   -0.669948
C       0.027455   -2.132413    0.688104
C       0.046130   -0.833274    1.190764
N       0.029953   -0.949716    2.549407
N       0.002059   -2.245780    2.931513
C       0.000964   -2.980909    1.820740
H       0.109002    1.639519   -0.872015
H      -0.046698   -2.727292   -1.374953
H       0.047039   -0.233881    3.253313
H      -0.021724   -4.056860    1.890838
