21

C      -0.112672    1.397051    0.032628
O       0.232578    0.038359   -0.129315
C       0.714363   -0.575419    1.041858
C      -0.307814   -1.277159    2.031963
C      -1.798082   -1.206778    1.720809
C       0.435130   -2.598609    1.783402
C       0.422970   -2.947452    0.310652
C       1.392546   -1.916974    0.812827
O       2.765348   -2.076201    0.726295
H       0.748362    1.993932    0.371654
H      -0.436461    1.768503   -0.942980
H      -0.932444    1.538275    0.751328
H       1.381027    0.107675    1.586336
H      -0.127487   -0.923898    3.052167
H      -2.006777   -1.433591    0.672322
H      -2.353812   -1.920585    2.338498
H      -2.199314   -0.209038    1.927515
H       0.663423   -3.342414    2.536603
H       0.893183   -3.898344    0.080004
H      -0.408027   -2.682561   -0.335487
H       3.010819   -2.048671   -0.204947
