13

N       0.118897    1.409413    0.152478
C      -0.046667    0.033275    0.051254
C      -1.154961   -0.798793    0.035483
N      -2.547481   -0.885866    0.012671
C      -2.749727   -2.159407   -0.027413
O      -1.635743   -2.985157   -0.040451
C      -0.612676   -2.087014    0.003337
N       0.696872   -2.173776   -0.009520
N       1.017540   -0.826574    0.025925
H       0.774292    1.796985   -0.515633
H      -0.764728    1.896786    0.087666
H      -3.697601   -2.674574   -0.050441
H       1.986815   -0.576221    0.120750
