18

C      -0.158801    1.417064    0.036582
C       1.419150    1.334361    0.052873
C       2.032165    0.559160    1.257589
C       2.381853   -0.852106    0.748056
C       1.309467   -1.770303    0.213741
C      -0.042448   -1.153925    0.276280
C      -0.026980   -0.018682   -0.435388
C       1.349467    0.203442   -1.034982
N       2.185356   -0.957654   -0.704360
H      -0.678770    1.602917    0.978370
H      -0.496297    2.126754   -0.724856
H       1.946413    2.260897   -0.191011
H       2.949661    1.049320    1.594523
H       1.351679    0.530023    2.114065
H       3.295273   -1.307566    1.122451
H       1.479941   -2.843315    0.219167
H      -0.764212   -1.417768    1.040814
H       1.425086    0.514618   -2.077755
