21

C      -0.228815    1.526091   -0.244411
C      -0.026672    0.026947   -0.072497
C       1.160798   -0.575941   -0.926394
C       1.941916   -0.603565    0.368107
C       3.061394   -0.184673    0.960670
C       2.752407    0.247001    2.366467
C       1.956720    1.532023    2.439948
C       1.212891    0.218857    2.487014
C       0.719626   -0.491538    1.237076
H       0.720580    2.068882   -0.234383
H      -0.714737    1.735758   -1.203714
H      -0.860199    1.938069    0.549307
H      -0.977366   -0.490303   -0.230351
H       0.917886   -1.569056   -1.318192
H       1.551350    0.039278   -1.741794
H       4.023517   -0.008735    0.492305
H       3.399643   -0.016918    3.196649
H       1.987199    2.083494    3.374700
H       1.916674    2.158381    1.557537
H       0.763582   -0.041763    3.438228
H       0.286030   -1.462409    1.508870
