16

C       0.013609    1.588085    0.286622
C      -0.021131    0.088903   -0.059683
C      -1.393923   -0.475244   -0.147575
C      -2.125851   -0.997386   -1.173350
O      -1.676588   -1.114765   -2.456469
C      -3.404674   -1.370919   -0.642506
C      -3.357277   -1.045149    0.675843
O      -2.158828   -0.504411    0.994263
H       1.045266    1.947380    0.353611
H      -0.506136    2.176768   -0.475337
H      -0.474767    1.775387    1.247250
H       0.462562   -0.085482   -1.026152
H       0.561548   -0.467129    0.687194
H      -2.346903   -1.563616   -2.978515
H      -4.233399   -1.817174   -1.171376
H      -4.065881   -1.133936    1.482733
