19

C      -0.056720    1.551236   -0.062967
O       1.304627    2.015165   -0.039271
C       2.124535    0.947995   -0.443024
C       2.642169   -0.059077    0.638438
C       1.751964   -0.024967    1.879403
C       0.330553   -0.465509    1.448929
C       0.018606    0.018709    0.015868
C       1.282233   -0.263022   -0.855403
O       2.214870   -1.164112   -0.219647
H      -0.588645    1.999846    0.781936
H      -0.542202    1.887118   -0.991250
H       2.894840    1.293355   -1.134718
H       3.713827   -0.100404    0.847068
H       2.138598   -0.693985    2.654152
H       1.752053    0.991524    2.287269
H       0.289103   -1.557372    1.453521
H      -0.427286   -0.106618    2.152200
H      -0.889796   -0.450331   -0.370395
H       1.086698   -0.521431   -1.897985
