17

O       0.076784    0.102733    0.317958
C       0.044467    1.247664   -0.003221
O      -1.010200    1.941839   -0.538260
C      -0.243006    3.190077   -0.560270
C       0.987607    2.457856    0.011065
C       1.534177    2.878622    1.373771
C       2.560517    1.863058    1.920974
C       3.087891    2.253075    3.221884
C       3.506127    2.600921    4.293528
H      -0.159176    3.574990   -1.578083
H      -0.701504    3.932537    0.096931
H       1.798293    2.341126   -0.715063
H       2.004365    3.864509    1.290708
H       0.711492    2.980207    2.090314
H       2.089770    0.875031    1.985167
H       3.387470    1.760214    1.205754
H       3.883253    2.891925    5.242371
