19

C      -0.093032    1.470721   -0.029971
C      -0.061207    0.014254   -0.007940
C      -0.004253   -1.190287    0.006143
C       0.031771   -2.649646    0.032613
C       0.610250   -3.185257    1.380195
C      -0.627511   -3.498623    2.187809
C      -1.725753   -3.520077    1.438136
C      -1.430822   -3.239282   -0.020532
O      -2.375308   -2.432067   -0.685059
H       0.918122    1.887589    0.033844
H      -0.547523    1.846274   -0.953267
H      -0.669199    1.871303    0.811307
H       0.616570   -3.005326   -0.821314
H       1.205312   -4.092377    1.208320
H       1.272140   -2.460015    1.862359
H      -0.584149   -3.713981    3.249934
H      -2.730541   -3.751222    1.772542
H      -1.417887   -4.179462   -0.587846
H      -2.230443   -1.524884   -0.384192
