21

C      -0.107155    1.538343    0.031003
C      -0.037523    0.038640    0.019800
C       0.645767   -0.850781   -1.093617
C       1.535904   -1.496379   -0.004083
C       0.643217   -0.889194    1.105543
C      -0.703382   -1.634685    1.289153
O      -1.400445   -1.264239    2.463977
C      -1.257004   -0.969187    0.003301
C      -0.698302   -1.590432   -1.300057
H       0.894765    1.984114    0.035876
H      -0.634815    1.919723   -0.851439
H      -0.636379    1.913442    0.916073
H       1.142255   -0.449716   -1.978648
H       1.656770   -2.585210   -0.021859
H       2.529679   -1.038843    0.007736
H       1.118957   -0.536920    2.023496
H      -0.666784   -2.729055    1.305482
H      -1.455595   -0.302441    2.489199
H      -2.310191   -0.681277    0.034383
H      -1.228754   -1.197060   -2.172379
H      -0.674158   -2.683335   -1.373937
