18

C      -0.088738    1.599419   -0.180083
C      -0.080734    0.085502   -0.193930
C      -1.330618   -0.535903    0.418786
O      -1.415414   -0.251849    1.798992
C       0.656448   -0.746114   -1.158888
C       1.963785   -0.121185   -1.641926
C       2.310909   -0.011698   -0.147668
O       3.240399    0.375526    0.487462
N       1.116237   -0.696227    0.314052
H       0.863292    2.046264   -0.470904
H      -0.861450    1.968671   -0.862879
H      -0.336527    1.944398    0.827122
H      -2.225311   -0.107095   -0.045709
H      -1.330994   -1.618850    0.227317
H      -0.598774   -0.589419    2.188640
H       0.250193   -1.672103   -1.550543
H       2.621873   -0.833959   -2.145557
H       1.920228    0.801248   -2.224484
