15

N       0.634164   -0.112161   -0.575633
C      -0.192430    0.389513    0.372433
O       0.077183    1.302755    1.128372
C      -1.561925   -0.311793    0.452943
O      -1.725089   -1.325133   -0.542775
C      -2.049702   -2.577560    0.073024
C      -2.022295   -2.302332    1.549395
C      -1.750951   -1.021811    1.766783
H       1.526012    0.326778   -0.730973
H       0.285161   -0.813656   -1.206844
H      -2.313527    0.478751    0.304968
H      -3.037080   -2.914792   -0.277801
H      -1.317801   -3.340194   -0.232218
H      -2.204316   -3.065468    2.294871
H      -1.651376   -0.508221    2.712314
