16

N      -0.323685    1.413261    0.472779
C      -0.023258    0.067601    0.178342
C      -0.804936   -0.829070   -0.520887
N      -0.172536   -2.055180   -0.477883
C       1.006508   -1.951647    0.207738
C       1.883321   -3.143600    0.402842
O       2.056411   -3.898029   -0.798251
C       1.125712   -0.643498    0.632820
H       0.506301    1.993069    0.482614
H      -0.984332    1.811695   -0.182712
H      -1.742070   -0.696421   -1.036921
H      -0.458932   -2.884771   -0.967643
H       2.843691   -2.818217    0.827654
H       1.443485   -3.856796    1.111113
H       2.413439   -3.294652   -1.459380
H       1.935731   -0.242774    1.224738
