20

C      -0.002619    1.381682    0.015585
N      -0.033106   -0.059174    0.007147
C       0.045852   -0.950629   -1.021435
O       0.171421   -0.828442   -2.217068
C      -0.003192   -2.148518   -0.050705
O       1.085221   -3.033021   -0.123766
C       0.034530   -1.070953    1.096854
C       1.345278   -1.028348    1.876091
C      -1.187315   -1.054482    2.011487
H       0.890052    1.763179    0.525815
H       0.018148    1.718667   -1.023563
H      -0.889039    1.801600    0.505074
H      -0.958771   -2.689980   -0.076407
H       1.381269   -3.041981   -1.041477
H       2.203260   -1.074955    1.202856
H       1.410937   -0.112942    2.474105
H       1.408205   -1.880849    2.558492
H      -1.165583   -1.910977    2.692501
H      -1.210976   -0.145558    2.622512
H      -2.113936   -1.098366    1.431111
