14

C      -0.035868    1.423462    0.081219
N      -0.003716   -0.013085   -0.151401
C       1.256125   -0.701472    0.078066
C      -1.145595   -0.735797   -0.049311
N      -1.220027   -2.038724    0.106353
O      -2.571729   -2.285495    0.072979
N      -3.246333   -1.103793   -0.077089
N      -2.410203   -0.165164   -0.150420
H       0.747869    1.898411   -0.515976
H      -1.002607    1.823317   -0.222349
H       0.133277    1.674123    1.138665
H       1.471226   -0.831573    1.148626
H       1.224942   -1.687845   -0.387841
H       2.063325   -0.118506   -0.372869
