15

C      -0.048679    1.573672    0.007791
C      -0.009045    0.076333   -0.035999
C      -0.087985   -0.777902   -1.171886
C       0.001779   -2.068541   -0.729944
O       0.128377   -2.067346    0.648946
C       0.119232   -0.778189    1.035641
N       0.301087   -0.550422    2.381035
H       0.121413   -1.358718    2.960249
H      -0.153622    0.280030    2.730869
C      -0.006683   -3.308749   -1.386323
N      -0.018831   -4.325630   -1.946051
H       0.588947    1.965592    0.807668
H       0.311993    2.000479   -0.932158
H      -1.061504    1.963268    0.171664
H      -0.191077   -0.475270   -2.202807
