18

C      -0.018228    1.472325   -0.034731
C       0.003340   -0.037799   -0.021108
C      -0.489588   -0.798066   -1.205659
C      -1.185009   -1.862709   -0.809119
C      -1.229199   -1.934189    0.697178
N      -0.449900   -0.761230    1.172189
C       0.997893   -0.760957    0.890789
C       1.819854   -1.913439    0.453666
O       1.427446   -2.999497    0.092728
H       0.681665    1.864076   -0.780585
H      -1.020036    1.835693   -0.287091
H       0.255591    1.874598    0.943352
H      -0.293547   -0.492286   -2.225534
H      -1.640003   -2.606858   -1.451322
H      -2.251011   -1.840395    1.087177
H      -0.808692   -2.867475    1.079024
H       1.547739   -0.109222    1.569616
H       2.911092   -1.690558    0.496908
