16

C      -0.019963    1.547956   -0.033000
C       0.022070    0.051454   -0.025988
C       0.062225   -0.783793   -1.175593
C       0.092127   -2.075228   -0.701170
N       0.199237   -3.290933   -1.323083
H      -0.127325   -3.320119   -2.276283
H      -0.106829   -4.076222   -0.766733
O       0.071129   -2.102978    0.635905
C       0.028030   -0.784485    1.070975
C      -0.007719   -0.540779    2.487223
O      -0.005468   -1.388483    3.360033
H       0.857121    1.958390   -0.545398
H      -0.903714    1.909422   -0.570343
H      -0.045790    1.964433    0.975278
H       0.073138   -0.477482   -2.209700
H      -0.040384    0.543151    2.735125
