21

C       0.119174    1.427102   -0.098038
C      -0.122499   -0.040890    0.244048
C      -1.579514   -0.438873    0.124058
O      -2.479610    0.284107   -0.218036
O      -1.743036   -1.738876    0.469759
C      -3.061159   -2.251525    0.390810
C      -3.375483   -3.205840   -0.725405
C      -3.220025   -3.708921    0.699572
C      -2.035364   -4.567085    1.085571
H       1.180708    1.671957   -0.003744
H      -0.198167    1.648205   -1.120134
H      -0.447596    2.082622    0.567928
H       0.457172   -0.705537   -0.407964
H       0.205619   -0.276980    1.263139
H      -3.810146   -1.536084    0.706236
H      -4.358662   -3.165725   -1.180791
H      -2.564805   -3.430454   -1.410844
H      -4.144456   -3.960739    1.213029
H      -1.127682   -4.242345    0.571335
H      -1.842897   -4.512723    2.162474
H      -2.216700   -5.616011    0.829070
