20

C      -0.086668    1.528123    0.010919
C       0.078662    0.017184    0.002302
O       1.170334   -0.504197   -0.011670
C      -1.207286   -0.800994    0.009917
C      -0.980055   -2.311864   -0.000682
C      -2.288029   -3.107248    0.007339
C      -2.061770   -4.613079   -0.003250
O      -3.331948   -5.247446    0.005317
H       0.892487    2.008173    0.004035
H      -0.663743    1.854134   -0.861773
H      -0.647420    1.845908    0.897166
H      -1.795958   -0.497556    0.887943
H      -1.812569   -0.487832   -0.853284
H      -0.381688   -2.575025   -0.880628
H      -0.365069   -2.584755    0.864720
H      -2.884135   -2.853363    0.893077
H      -2.900895   -2.843521   -0.863969
H      -1.480642   -4.894460   -0.897031
H      -1.463721   -4.904389    0.876069
H      -3.192966   -6.198825   -0.001142
