18

C       0.152646    1.367731    0.225799
N      -0.026247   -0.049478   -0.073894
C      -1.343984   -0.502405   -0.130342
C      -2.354640   -0.815877    0.936045
O      -3.428313   -0.078004    0.365570
C      -2.724792   -0.164883   -0.904180
C      -2.832281   -1.660192   -1.294499
C      -1.929169   -1.905189   -0.085750
O      -1.245408   -3.048344    0.260814
H       1.221188    1.590493    0.294240
H      -0.296289    2.043654   -0.519679
H      -0.304184    1.588374    1.195321
H       0.516313   -0.337742   -0.879520
H      -2.272481   -0.921121    2.010387
H      -2.962914    0.641577   -1.594385
H      -3.842663   -2.082118   -1.304210
H      -2.309478   -1.878776   -2.229606
H      -1.831334   -3.610800    0.779532
