17

C       0.051343    1.406992   -0.134819
C       0.007381   -0.079301   -0.015511
O       0.530314   -0.917302   -1.093199
C       0.068947   -1.895835   -0.110729
C       0.220985   -3.353257   -0.401474
C       0.501487   -1.025886    1.122984
N      -0.844825   -1.018847    1.783186
C      -1.175453   -1.040664    0.320799
H       1.083013    1.755436   -0.242681
H      -0.519580    1.741698   -1.006259
H      -0.380824    1.856146    0.764061
H       1.275691   -3.610717   -0.538298
H      -0.176313   -3.948604    0.427350
H      -0.322077   -3.622360   -1.312564
H       1.448180   -1.011493    1.665855
H      -1.037162   -1.932389    2.202101
H      -2.192302   -1.043485   -0.075623
