20

C      -0.273215    1.390177    0.020474
N      -0.035576   -0.029644   -0.057106
C       0.694340   -0.557486   -0.950588
O       0.737946   -1.925686   -0.931913
C       1.867896   -2.574759   -1.531817
C       1.620626   -4.068886   -1.404978
C       2.064784   -2.100592   -2.971627
C       2.037770   -0.600878   -3.007630
C       1.433437    0.099076   -2.042674
H       0.243331    2.018796   -0.718289
H      -1.349610    1.579060   -0.077245
H       0.011686    1.743584    1.018919
H       2.765254   -2.299522   -0.956726
H       0.720245   -4.355234   -1.957010
H       2.469996   -4.631205   -1.804711
H       1.481412   -4.343264   -0.356479
H       3.017136   -2.481728   -3.358499
H       1.278134   -2.513989   -3.619618
H       2.523426   -0.089832   -3.834552
H       1.436487    1.180853   -2.064430
