16

C       0.004003   -1.121541   -0.014350
C       0.000014    0.081493    0.000138
C       0.046127    1.499475    0.044451
C      -0.792552    2.500685    0.768800
C       0.304197    3.555915    0.493207
C      -0.131671    3.550812   -1.004962
C       1.250796    3.044454   -1.443808
C       1.285071    2.428449   -0.026058
N      -0.992378    2.326887   -0.696765
H      -0.005179   -2.182960   -0.034390
H      -1.582325    2.375682    1.499646
H       0.609321    4.412605    1.086756
H      -0.687696    4.334299   -1.517105
H       1.315235    2.380036   -2.309307
H       1.961388    3.871196   -1.542141
H       2.192298    2.118526    0.486858
