15

C      -0.460887    1.378013    0.077061
C       0.138320   -0.005450    0.056519
O       0.704275   -0.504948    0.994012
C       0.042614   -0.794064   -1.289012
C       0.437108   -2.275572   -1.080494
C       0.704379   -2.965475   -2.337912
N       0.928205   -3.499434   -3.337359
C      -1.273946   -0.648598   -1.906366
N      -2.329111   -0.526072   -2.361274
H      -0.123444    1.961857   -0.785938
H      -1.551340    1.309516    0.001789
H      -0.185597    1.879920    1.004498
H       0.774542   -0.322037   -1.959618
H       1.326109   -2.298507   -0.445101
H      -0.354081   -2.798790   -0.535586
