21

C      -0.070949    1.572766   -0.023443
C      -0.011535    0.049064    0.012970
C      -1.383654   -0.553787   -0.302251
C       1.163796   -0.645680   -0.752210
O       2.312469    0.078799   -0.291031
C       2.233484   -0.325984    1.089743
C       2.512640   -1.838943    0.987140
C       1.140019   -1.837079    0.299643
C       0.679248   -0.640752    1.212567
H       0.916861    2.013298    0.118677
H      -0.464492    1.926195   -0.983989
H      -0.738181    1.949721    0.760496
H      -1.720334   -0.238454   -1.296577
H      -1.386946   -1.646441   -0.279705
H      -2.130980   -0.206986    0.420165
H       1.187576   -0.774301   -1.834410
H       2.782168    0.360902    1.731706
H       3.406112   -2.138170    0.433632
H       2.460835   -2.346832    1.954259
H       0.554817   -2.729160    0.094255
H       0.241071   -0.756781    2.203544
