14

O      -0.015131   -0.185461    0.276991
C      -0.022514    1.014934    0.133434
C       1.163723    1.829964    0.052458
C       2.135264    2.544498   -0.015274
C       3.337477    3.349516   -0.113001
C       4.131460    3.163423   -1.456176
N       4.168447    4.502122   -2.053169
C       3.541492    5.262979   -1.261939
O       3.009049    4.767877   -0.114475
H      -0.968356    1.587170    0.051926
H       3.971757    3.167541    0.760452
H       5.145540    2.797762   -1.273741
H       3.634635    2.459816   -2.129107
H       3.373464    6.324431   -1.404353
