19

C       0.407316    1.522192   -0.254732
C       0.146847    0.060331    0.037738
O       0.856250   -0.838241   -0.860395
C       1.268235   -1.682253    0.244338
C       0.756048   -0.649261    1.274342
C       2.012368   -0.021549    1.926825
C       3.207800   -0.376799    1.018424
C       2.798523   -1.686842    0.342647
O       3.525650   -2.573104   -0.020720
H       1.467688    1.776983   -0.180141
H       0.075088    1.758147   -1.270679
H      -0.154737    2.156358    0.439459
H      -0.932831   -0.136566   -0.033773
H       0.834561   -2.685012    0.197189
H       0.028355   -0.981863    2.014784
H       1.903669    1.054339    2.087970
H       2.158109   -0.475107    2.912761
H       3.350851    0.371647    0.229826
H       4.158484   -0.487999    1.542558
