17

C      -0.121859    1.310541   -0.135191
C       0.186123   -0.150795    0.112913
C       1.501499   -0.798000   -0.020343
C       2.660826    0.111206    0.412198
C       2.004790    0.185205    1.815255
O       2.391345    0.587266    2.876753
C       0.831936   -0.660399    1.418601
C       0.172575   -1.705278    2.222444
O      -0.623436   -2.501348    1.777457
H       0.695288    1.974052    0.156204
H      -0.325649    1.474139   -1.198823
H      -1.011155    1.611375    0.426273
H      -0.632987   -0.824180   -0.134307
H       1.625028   -1.756583   -0.507617
H       3.621030   -0.407524    0.479686
H       2.799772    1.043828   -0.139841
H       0.477287   -1.722829    3.289407
