19

C      -0.099680    1.574070   -0.174770
C      -0.055590    0.060530   -0.028020
O      -1.332766   -0.518418   -0.172010
C       1.112871   -0.624738   -0.791306
O       1.833434   -0.833005    0.441362
C       0.663777   -0.505431    1.225692
C       0.988518    0.368783    2.430958
C       1.893128   -0.354098    3.410695
O       1.650023   -0.497684    4.581477
H       0.889695    2.020036   -0.041645
H      -0.443491    1.843175   -1.181492
H      -0.786572    2.017546    0.552170
H      -1.799330   -0.066528   -0.882812
H       0.808870   -1.569517   -1.259103
H       1.685766   -0.019794   -1.503162
H       0.144430   -1.418285    1.551026
H       1.517927    1.268468    2.092109
H       0.073818    0.665992    2.952385
H       2.826780   -0.754794    2.960561
