22

C       0.025325    1.407974   -0.339607
C       0.157378   -0.072028   -0.070581
N       1.522021   -0.600836    0.098515
C       0.581232   -0.620958    1.248430
C       0.923620    0.242784    2.468615
C       0.883402   -0.727274    3.679398
C       0.235569   -1.966953    3.116302
C       0.064097   -1.918104    1.791877
C      -0.533451   -2.987222    0.928620
H       0.757242    1.976808    0.238665
H       0.194570    1.624143   -1.400080
H      -0.977197    1.765444   -0.079153
H      -0.535567   -0.690871   -0.640598
H       1.598444   -1.527807   -0.314891
H       1.893480    0.727467    2.342562
H       0.174286    1.031514    2.593398
H       1.887776   -0.949708    4.064645
H       0.321820   -0.310465    4.523634
H      -0.037992   -2.814214    3.737080
H      -0.730308   -3.894220    1.505659
H      -1.480315   -2.660790    0.481169
H       0.127988   -3.262059    0.096693
