17

O       0.027057    0.032775   -0.407683
C       0.013490    1.151485    0.029708
O      -1.166342    1.718293    0.379263
C      -1.271097    2.902738    1.194644
C      -0.654776    4.174327    0.609576
C       0.844438    3.999954    0.326323
C       1.169840    3.186230   -0.944320
C       1.279794    2.008391    0.051855
O       1.386129    2.931322    1.156508
H      -2.347562    3.036805    1.320781
H      -0.827368    2.696952    2.171095
H      -1.175528    4.481512   -0.304371
H      -0.814063    4.966579    1.350736
H       1.397751    4.932070    0.467780
H       0.410737    3.127594   -1.725664
H       2.136276    3.445347   -1.377843
H       2.138165    1.339639   -0.020352
