19

C       0.119893    1.606188    0.081042
C       0.126240    0.115227    0.015466
C       1.273322   -0.783889   -0.331050
C       0.512057   -1.000290    0.972895
C       1.142432   -1.028288    2.332684
C      -0.876127   -1.571668    0.635871
O      -1.111790   -0.535215   -0.341751
C      -0.926897   -2.978344    0.082425
O      -1.071800   -3.951754    0.777494
H       1.081990    1.978952    0.443767
H      -0.051460    2.031055   -0.914570
H      -0.670871    1.967648    0.745500
H       1.201232   -1.468469   -1.170512
H       2.260123   -0.354343   -0.183716
H       1.992900   -0.340886    2.384023
H       0.427663   -0.739974    3.111226
H       1.513788   -2.030504    2.575298
H      -1.570192   -1.488572    1.481303
H      -0.791500   -3.050905   -1.019073
