23

C       0.526963    1.258734   -0.202916
O       0.197472   -0.093251   -0.005408
C       0.853523   -0.659327    1.114056
C       0.442090   -2.119126    1.207677
C       1.068432   -3.013289    0.099029
C       2.127849   -3.507590    1.121812
O       3.339162   -2.767566    1.088817
C       1.219019   -2.974737    2.264462
C       1.856948   -2.341714    3.493294
H       1.606782    1.398001   -0.374258
H      -0.017319    1.605812   -1.085158
H       0.238254    1.882339    0.658914
H       1.945083   -0.573323    1.001268
H       0.571549   -0.117100    2.033341
H      -0.647990   -2.164802    1.283928
H       0.399467   -3.814743   -0.225933
H       1.451495   -2.493288   -0.783153
H       2.339052   -4.586004    1.133258
H       3.763493   -2.936670    0.241532
H       0.564741   -3.795584    2.578472
H       2.575495   -1.565513    3.221884
H       1.095641   -1.897787    4.143945
H       2.394157   -3.095282    4.079244
