19

C      -0.034402    1.531462    0.044210
C       0.028477    0.002635   -0.049404
C       0.734547   -0.495012   -1.287041
C       2.212922   -0.220714   -1.721705
C       1.615404   -1.129364   -2.830977
C       0.981558   -1.980777   -1.697049
C       0.343153   -0.239377   -2.780749
H       0.969481    1.968606    0.061974
H      -0.567022    1.958949   -0.811819
H      -0.553377    1.850348    0.953216
H       0.537725   -0.400814    0.836025
H      -0.988941   -0.410436   -0.031216
H       2.460971    0.805421   -2.008637
H       2.995108   -0.659298   -1.094287
H       2.124281   -1.496322   -3.722929
H       1.669167   -2.553392   -1.066879
H       0.096284   -2.569015   -1.957954
H      -0.590410   -0.695174   -3.125038
H       0.446094    0.785286   -3.149900
