18

C      -0.133508    1.594436    0.021696
C       0.016809    0.076560   -0.037446
O      -1.263961   -0.555069   -0.063660
C       0.800366   -0.477964   -1.217061
C       2.261886   -0.123016   -1.386162
C       1.865873   -1.391604   -0.669384
N       1.756923   -1.308703    0.759292
C       0.781999   -0.461489    1.202401
O       0.522931   -0.183124    2.355203
H       0.831391    2.102543   -0.064178
H      -0.783741    1.931084   -0.790107
H      -0.577835    1.877962    0.980774
H      -1.655822   -0.419468    0.808134
H       0.224079   -0.759623   -2.089020
H       2.668399   -0.208555   -2.388330
H       2.690698    0.675757   -0.789591
H       2.072835   -2.370893   -1.084063
H       2.442905   -1.684762    1.395115
