14

O      -0.048983   -0.098277    0.004104
C       0.020061    1.117647    0.009134
N      -1.164326    1.891104    0.028507
C      -1.229907    3.243366    0.035931
C      -0.087616    4.002521    0.024540
C       1.162789    3.293995    0.004591
C       1.217928    1.936985   -0.002723
C      -0.143285    5.420956    0.032155
C      -0.167125    6.625326    0.038305
H      -2.013612    1.342311    0.037048
H      -2.219063    3.683562    0.051119
H       2.077373    3.877639   -0.004657
H       2.159626    1.402530   -0.017760
H      -0.194013    7.686844    0.043798
