19

C       0.104476    1.609411   -0.028373
C       0.077731    0.091152    0.040353
C       0.945562   -0.734448   -0.957617
C       1.390808   -1.664901    0.211835
C       2.873177   -1.719034    0.540691
C       3.118341   -0.453952    1.365660
O       4.162748    0.023880    1.696198
O       1.921878    0.104522    1.718296
C       0.799861   -0.626412    1.211068
H       1.126612    1.988283    0.056203
H      -0.312620    1.958597   -0.978879
H      -0.483865    2.055495    0.780392
H      -0.956554   -0.269989    0.013913
H       0.418726   -1.211957   -1.786095
H       1.779225   -0.156552   -1.369610
H       0.895176   -2.635503    0.212899
H       3.141582   -2.582358    1.159525
H       3.534419   -1.722402   -0.328879
H       0.198726   -0.955114    2.062343
