22

C      -0.188391    1.649125    0.129200
C      -0.049590    0.131043   -0.031808
C       0.800450   -0.515428    1.068512
C       0.759016   -2.061426    1.196143
C       0.709692   -2.794549   -0.150362
C       2.081882   -2.363736    1.944895
N       2.956450   -1.307042    1.468304
C       2.305776   -0.209576    0.975154
O       2.838264    0.800783    0.562777
H       0.794141    2.124148    0.115860
H      -0.795216    2.071961   -0.677592
H      -0.677008    1.899208    1.078325
H      -1.045090   -0.331298   -0.021669
H       0.386825   -0.093857   -1.011446
H       0.482773   -0.095074    2.035622
H      -0.096419   -2.375365    1.801775
H       1.572684   -2.539369   -0.774680
H       0.717195   -3.878256    0.005149
H      -0.194908   -2.546178   -0.711335
H       1.945635   -2.319716    3.035593
H       2.480773   -3.352742    1.696309
H       3.951138   -1.283528    1.626263
