12

F      -0.015722   -0.009557    0.003695
C      -0.037866    1.317784    0.011074
C      -1.193222    2.002617    0.029614
N      -1.199225    3.379660    0.036989
C      -0.052012    4.160633    0.026388
O      -0.072502    5.370104    0.032905
N       1.109588    3.402409    0.007273
C       1.254721    2.005141   -0.001934
O       2.341682    1.475169   -0.018927
H      -2.155247    1.507002    0.039362
H      -2.066166    3.892555    0.050893
H       1.971721    3.931674   -0.001121
