18

C      -0.553514    1.338411    0.524013
C       0.009364   -0.001394    0.112726
C       1.418229   -0.132503   -0.382655
C       1.045782   -0.723685    0.973019
C       1.543043   -0.136614    2.181254
C       1.957103    0.343325    3.205368
C       2.463575    0.921739    4.446789
C       1.437473    1.646496    5.210779
N       0.640409    2.220482    5.817772
H       0.206002    1.953755    1.013753
H      -0.923170    1.886084   -0.349400
H      -1.385639    1.220134    1.225593
H      -0.711782   -0.672886   -0.345587
H       1.638762   -0.828356   -1.184329
H       2.040499    0.755560   -0.369570
H       0.954205   -1.805448    1.006117
H       2.878290    0.137873    5.094075
H       3.289960    1.616152    4.245467
