17

C       0.022618   -1.205813   -0.049284
C      -0.003974   -0.005111   -0.007089
C      -0.020759    1.438806    0.068859
C      -0.865577    2.152957    1.166854
C      -1.105429    3.152967    0.018551
C       0.035238    4.173175   -0.112868
C       1.355847    3.432390   -0.088197
C       1.350120    2.103801    0.002817
O      -0.877057    2.081548   -0.943464
H       0.036455   -2.266874   -0.093092
H      -1.768359    1.589752    1.404648
H      -0.348655    2.479439    2.070133
H      -2.096549    3.598712   -0.092529
H      -0.071376    4.733585   -1.050747
H      -0.014656    4.912239    0.698398
H       2.279242    3.999850   -0.155006
H       2.244886    1.493722    0.032933
