21

C      -0.036623    1.575827   -0.024438
C       0.039975    0.045088   -0.014518
C       0.654090   -0.526933   -1.303682
C       0.925586   -2.020774   -1.145164
O       1.912394   -2.264196   -0.151505
C       1.631030   -1.704567    1.097847
C       2.242323   -0.355575    1.425459
C       0.748035   -0.497217    1.222217
O      -0.039826   -0.490431    2.387563
H       0.963200    2.020604   -0.074833
H      -0.608468    1.934858   -0.886485
H      -0.530078    1.955995    0.876891
H      -0.983059   -0.348543    0.060073
H      -0.028051   -0.354851   -2.144211
H       1.595798   -0.018636   -1.547241
H      -0.009831   -2.549193   -0.898632
H       1.325851   -2.454622   -2.065820
H       1.566361   -2.437886    1.897738
H       2.591246   -0.186668    2.438394
H       2.835998    0.105441    0.643300
H      -0.022123    0.401979    2.750231
