18

C      -0.025513    1.507028   -0.199531
C       1.520705    1.552725    0.111046
C       1.292680    0.246758    0.878406
N       1.945320   -1.053243    1.159896
C       0.743060   -1.310062    1.975005
C      -0.667242   -0.757911    1.274444
O      -0.741328    0.258950    2.306622
C       0.676533    0.163556    2.357500
C      -0.005296   -0.024720    0.111128
H      -0.608649    2.063009    0.535588
H      -0.329557    1.796146   -1.206405
H       2.116738    1.417308   -0.796850
H       1.912854    2.407270    0.668732
H       2.057399   -1.640142    0.333571
H       0.710021   -2.162799    2.650665
H      -1.575206   -1.350985    1.178207
H       1.171952    0.656310    3.191665
H       0.144890   -0.640443   -0.779732
