21

C      -2.038779    1.361780    0.985738
C      -1.352521    0.007366    0.968240
O      -2.217252   -0.918064    0.313399
C      -1.733100   -2.241446    0.233405
C      -2.956164   -3.170227    0.296642
O      -2.602040   -4.543046    0.251196
C      -0.930829   -2.497391   -1.031907
C      -1.088777   -1.661345   -2.226167
O       0.063275   -1.532608   -1.381237
H      -1.413111    2.095540    1.502795
H      -2.216554    1.717996   -0.033086
H      -3.002150    1.301337    1.500437
H      -0.391463    0.057904    0.444278
H      -1.158887   -0.338407    1.997105
H      -1.087911   -2.460172    1.103191
H      -3.539874   -2.918655    1.192589
H      -3.593170   -2.986526   -0.574308
H      -2.174076   -4.767691    1.083561
H      -0.624656   -3.535087   -1.159097
H      -0.896125   -2.084662   -3.210500
H      -1.779196   -0.822870   -2.191070
