14

C       0.024233    1.417809   -0.056940
O       0.009649   -0.008934   -0.011196
C       0.595067   -0.634516   -1.038093
N       1.165433    0.007199   -2.056238
N       1.624303   -0.974479   -2.854188
C       1.357066   -2.216709   -2.363914
C       0.680644   -2.037518   -1.169581
C       1.750386   -3.394119   -3.043179
N       2.079883   -4.347047   -3.612680
H       1.050734    1.797768   -0.070836
H      -0.498142    1.785544   -0.945855
H      -0.488700    1.748790    0.846361
H       2.104443   -0.741666   -3.706921
H       0.309960   -2.796365   -0.502975
