16

C      -0.002343    1.541471    0.016281
C       0.083941    0.032817    0.054279
C       1.333791   -0.744781   -0.187034
N       2.501181    0.003166    0.301430
C       1.991637   -0.100887    1.707953
C       0.686594   -0.755041    1.220057
C      -0.028380   -1.768153    1.914338
N      -0.604095   -2.598228    2.482175
H       0.962746    1.997471    0.245522
H      -0.294557    1.872487   -0.985578
H      -0.749508    1.912559    0.724428
H      -0.793353   -0.484634   -0.327415
H       1.419409   -1.548037   -0.909401
H       3.353363   -0.533966    0.190610
H       2.575694   -0.791067    2.321445
H       1.901373    0.859498    2.224972
