21

C      -0.533934    1.404968   -0.011174
C       0.058845   -0.002088   -0.014151
C       1.135706   -0.233469   -1.095776
O       2.061312   -1.185725   -0.575269
C       1.605662   -1.640325    0.693929
C       0.780160   -0.481609    1.272396
C       1.684129    0.581235    1.933567
C       2.222327    0.079644    3.253215
O       3.384425   -0.105787    3.507021
H       0.237793    2.172288    0.106877
H      -1.051084    1.606048   -0.955214
H      -1.264374    1.530235    0.795074
H      -0.756926   -0.714630   -0.190266
H       0.698911   -0.605824   -2.031773
H       1.680209    0.692608   -1.326889
H       0.981799   -2.542346    0.586981
H       2.484220   -1.899988    1.292328
H       0.051005   -0.840319    2.008041
H       2.523836    0.846254    1.285285
H       1.098976    1.486126    2.143279
H       1.431958   -0.133753    4.013013
