16

C      -0.235767    1.523536   -0.057551
C       0.095595    0.020680    0.015493
C       0.815883   -0.486632   -1.193464
C       2.057504   -0.966751   -1.305379
C       2.319898   -1.346529   -2.709942
O       3.299649   -1.810209   -3.219810
O       1.175638   -1.071390   -3.429964
C       0.185768   -0.531290   -2.563986
H       0.674851    2.119508   -0.168115
H      -0.892918    1.752075   -0.902001
H      -0.744520    1.844361    0.855584
H       0.702133   -0.180095    0.904117
H      -0.838739   -0.543860    0.137820
H       2.800462   -1.090977   -0.530871
H      -0.706162   -1.171898   -2.586691
H      -0.106696    0.461568   -2.928359
