27

C      -0.426330    1.532734    0.035314
C       0.223214    0.145013    0.019165
C       0.935451   -0.268626    1.327073
C      -0.008091   -0.279070    2.563355
C      -1.137439   -1.317892    2.472361
C       0.760025   -0.443529    3.883272
C       1.673409   -1.582572    1.111266
C       2.960292   -1.605972    0.321746
C       2.979398   -1.891157    1.801801
H       0.293043    2.303616    0.335392
H      -0.797652    1.797441   -0.959923
H      -1.275506    1.587967    0.723259
H      -0.528834   -0.609026   -0.246051
H       0.967337    0.111973   -0.785177
H       1.698817    0.499344    1.529034
H      -0.481551    0.710551    2.597190
H      -0.745251   -2.340590    2.480577
H      -1.811391   -1.223451    3.330326
H      -1.740711   -1.197852    1.567499
H       1.553844    0.305113    3.981285
H       0.085250   -0.325492    4.738098
H       1.222147   -1.432294    3.959626
H       1.023251   -2.437949    0.944534
H       3.134762   -2.425060   -0.367209
H       3.364792   -0.654971   -0.011586
H       3.400430   -1.133336    2.453823
H       3.165247   -2.907957    2.131249
