19

C       0.268661    1.223334   -0.283213
C       0.444629   -0.196899    0.188084
O       1.741236   -0.609905    0.622507
C       0.675605   -0.612056    1.594350
C       0.860407    0.361856    2.740866
O       2.049973    0.055954    3.449143
C       0.171521   -1.986257    2.007357
C       0.773054   -3.187632    1.312739
O      -0.672964   -2.076026    2.868704
H       0.825118    1.931734    0.331699
H       0.626417    1.314629   -1.314007
H      -0.790997    1.498496   -0.270866
H      -0.047936   -0.934873   -0.449561
H       0.862013    1.398876    2.383471
H       0.032197    0.234561    3.441240
H       2.768843    0.095235    2.807444
H       0.744728   -3.086397    0.224043
H       1.831611   -3.263529    1.585275
H       0.243782   -4.088041    1.625528
