17

O      -0.290656    1.493181   -0.214588
C       0.054627    0.128674    0.004938
C      -1.184658   -0.815994    0.151938
C      -1.354584   -1.543427   -1.205557
N      -0.028367   -1.382977   -1.778708
N       0.508154   -1.931861   -2.872157
C       1.719741   -1.363621   -2.940411
C       1.946799   -0.446289   -1.890634
C       0.777147   -0.491336   -1.152756
H      -0.500622    1.599921   -1.148604
H       0.642217    0.135455    0.926545
H      -0.988448   -1.550294    0.938121
H      -2.064897   -0.238703    0.438561
H      -1.605342   -2.601354   -1.100527
H      -2.108022   -1.079102   -1.851729
H       2.390331   -1.639705   -3.741395
H       2.828725    0.142927   -1.700743
