19

C      -0.259251    1.524395   -0.036684
C       0.101349    0.035368    0.071289
C       0.793786   -0.482023   -1.158233
C       0.058904   -0.971559   -2.379451
C       1.003817   -1.916063   -1.679681
N       2.377010   -1.606953   -2.149484
C       2.269096   -0.245503   -1.515194
C       0.631967   -3.170961   -1.121146
N       0.347952   -4.190425   -0.649823
H       0.634389    2.140641   -0.181508
H      -0.929901    1.706167   -0.882452
H      -0.758574    1.870915    0.872701
H       0.743076   -0.126634    0.946497
H      -0.807086   -0.554046    0.243637
H      -0.997438   -1.166700   -2.225332
H       0.336523   -0.647690   -3.378598
H       3.059884   -2.174188   -1.656876
H       2.494368    0.575442   -2.203533
H       2.889975   -0.145397   -0.618987
