24

C       2.116514    2.346520   -0.585946
C       1.007234    1.296390   -0.442044
C       1.191764    0.126282   -1.389869
C       2.022019   -1.102817   -1.052948
C       2.738247   -1.288089    0.269127
C       0.516728   -1.223893   -1.220989
C      -0.375947   -1.495086   -0.022508
C       0.020023   -1.903909   -2.485543
H       3.097276    1.919315   -0.352593
H       2.161566    2.733579   -1.610018
H       1.950165    3.195975    0.084303
H       0.967315    0.956649    0.597337
H       0.035093    1.768145   -0.638946
H       1.276301    0.452666   -2.426136
H       2.593403   -1.500921   -1.889595
H       2.200228   -0.848730    1.112176
H       2.879535   -2.351933    0.492051
H       3.731375   -0.825389    0.241156
H      -0.018920   -1.030072    0.898000
H      -1.391154   -1.123103   -0.205899
H      -0.453544   -2.573140    0.163479
H      -0.022371   -2.993013   -2.359841
H      -0.989197   -1.563661   -2.749088
H       0.674472   -1.692843   -3.337229
