18

O       0.023949    0.045090   -0.201611
C      -0.027027    1.228654   -0.010061
C      -1.289679    2.098634    0.162301
C      -0.683040    3.447487    0.515444
C       0.160478    4.246577   -0.539301
C       1.083778    4.516283    0.668460
N       0.670523    3.154286    1.169286
C       1.119338    2.227257    0.074709
C       0.950011    3.117739   -1.220756
H      -1.895601    2.089302   -0.748479
H      -1.904973    1.700514    0.974675
H      -1.293223    4.085298    1.156111
H      -0.254918    5.034184   -1.169947
H       2.155371    4.649878    0.493518
H       0.716785    5.280065    1.358186
H       2.102560    1.792956    0.240677
H       0.407250    2.608961   -2.022375
H       1.907773    3.455991   -1.623398
