19

C       0.137216    1.294159    0.306634
O      -0.357051    0.151533   -0.386609
C       0.557339   -0.559606   -1.066272
N       0.203055   -1.599299   -1.682981
C       1.174178   -2.380417   -2.452641
C       0.579269   -2.568921   -3.866022
C       2.609045   -1.816664   -2.554521
C       1.255709   -3.708950   -1.800070
N       1.349817   -4.747617   -1.302786
H       0.845188    1.008473    1.093302
H       0.618979    2.001661   -0.378694
H      -0.729958    1.772377    0.762438
H       1.571856   -0.145034   -1.022170
H       0.527031   -1.595449   -4.361856
H       1.199307   -3.241594   -4.464195
H      -0.430118   -2.976678   -3.793726
H       3.081834   -1.720260   -1.573616
H       3.225910   -2.488674   -3.155588
H       2.594673   -0.837534   -3.043053
