17

C      -0.056908    1.521275    0.022216
C      -0.039891    0.031402   -0.018842
C      -1.038249   -0.848285   -0.129154
C      -0.519785   -2.255659   -0.125458
N       0.920387   -2.078350    0.002436
C       1.768086   -3.176279    0.043177
N       3.029652   -3.104955    0.153005
C       1.257085   -0.708327    0.070546
O       2.358644   -0.231125    0.178332
H       0.546331    1.933037   -0.793884
H      -1.072542    1.916500   -0.053450
H       0.397250    1.883264    0.950725
H      -2.094908   -0.627817   -0.212803
H      -0.927732   -2.840636    0.711100
H      -0.777511   -2.789939   -1.050971
H       1.193187   -4.109633   -0.032868
H       3.423423   -4.044659    0.159499
