18

O      -0.140459   -0.029953    0.198233
C      -0.009628    1.153809    0.030154
C       1.326273    1.824498   -0.236375
C       1.251642    2.830469   -1.353928
N       0.256208    2.859764   -2.138730
C       0.202714    3.876905   -3.183900
C       1.149055    5.052829   -2.924433
C       2.499592    4.495435   -2.497084
O       2.357532    3.622353   -1.365274
H      -0.869594    1.851415    0.090083
H       1.649674    2.338817    0.679533
H       2.078630    1.059462   -0.452595
H       0.438795    3.398612   -4.144235
H      -0.833455    4.222468   -3.265043
H       1.264275    5.679367   -3.814610
H       0.751033    5.685858   -2.123327
H       2.963313    3.928310   -3.314939
H       3.196639    5.274729   -2.181091
