20

C       0.007397    1.598487   -0.111286
C      -0.032861    0.069313   -0.122573
C      -1.451821   -0.519233    0.054251
C      -1.458623   -2.060344   -0.066791
C      -2.864226   -2.679810   -0.004146
C      -2.804027   -4.191281   -0.007936
O      -3.346525   -4.900735   -0.813969
C      -2.031268   -0.106190    1.337773
N      -2.478738    0.201918    2.358451
H       1.030690    1.957466   -0.252138
H      -0.607026    2.017550   -0.915492
H      -0.362217    1.998881    0.837408
H       0.358880   -0.309116   -1.073591
H       0.614296   -0.331089    0.666291
H      -2.097175   -0.106522   -0.733305
H      -0.983332   -2.320057   -1.019114
H      -0.829534   -2.480239    0.727455
H      -3.352483   -2.369244    0.930395
H      -3.486427   -2.353266   -0.842595
H      -2.193549   -4.625095    0.819161
