17

C      -0.078711    1.448998    0.034626
C      -0.023963   -0.067770   -0.005466
O       0.927566   -0.708225    0.386014
N      -1.131620   -0.664691   -0.607295
C      -2.487753   -0.623095   -0.061842
C      -3.432817   -1.117118   -1.165331
C      -2.610614   -2.456702   -1.218989
C      -1.696592   -1.906399   -0.114384
H       0.937819    1.843231    0.002376
H      -0.672073    1.856327   -0.786667
H      -0.534556    1.773131    0.977418
H      -2.714594    0.010279    0.787750
H      -4.453243   -1.272234   -0.808893
H      -3.451768   -0.509730   -2.072889
H      -3.200646   -3.314716   -0.891111
H      -2.112154   -2.694654   -2.160972
H      -1.184027   -2.439208    0.676130
