17

C      -0.021605    1.481234   -0.000108
N       0.035420    0.035203    0.021681
C       0.055760   -0.812354   -1.041840
O       0.073505   -0.297818   -2.289435
N       0.061134   -2.073523   -0.716036
C       0.059574   -2.069806    0.679228
N       0.035942   -3.231166    1.491287
C       0.045192   -0.788829    1.151482
N      -0.071099   -0.251902    2.444123
H       0.978159    1.930109   -0.032852
H      -0.577249    1.809168   -0.880280
H      -0.532207    1.819188    0.904116
H       0.070161   -1.055926   -2.886725
H       0.882788   -3.778573    1.357093
H      -0.730549   -3.837898    1.210934
H      -0.325532   -1.007237    3.073149
H       0.805951    0.137268    2.782845
