19

C       0.053561    1.562380   -0.071656
O       1.418171    1.964728   -0.156720
C       2.186556    1.717450    1.005841
C       1.738310    0.465297    1.824413
C       0.680105    0.797935    2.862685
C      -0.479269    0.180186    2.624201
C      -0.400611   -0.653317    1.396007
C      -0.042593    0.054935    0.082269
C       1.036993   -0.566611    0.928319
H      -0.457801    2.091473    0.744154
H      -0.396976    1.879605   -1.015222
H       3.215733    1.583770    0.655887
H       2.173632    2.599677    1.666635
H       2.635171    0.053062    2.300915
H       0.862593    1.517384    3.653932
H      -1.385056    0.288984    3.209625
H      -0.972421   -1.570946    1.317049
H      -0.313691   -0.491233   -0.815694
H       1.583258   -1.428370    0.565885
