16

C      -0.010208    1.365482    0.078138
N      -0.032322   -0.069257   -0.103264
C       0.631380   -0.656159   -1.141823
N       1.187501    0.033477   -2.067897
C       0.633167   -2.140864   -1.101593
N       0.086016   -2.838486   -0.113715
N       0.332970   -4.112320   -0.488615
C       1.002248   -4.131493   -1.660378
N       1.210758   -2.901862   -2.077899
H       0.999011    1.743191    0.290280
H      -0.358072    1.861550   -0.832077
H      -0.672662    1.629087    0.905639
H      -0.287223   -0.660638    0.668997
H       1.590865   -0.598341   -2.757920
H       0.021533   -4.877798    0.087360
H       1.306196   -5.041968   -2.154477
