19

C      -0.041030    1.504737    0.046879
C      -0.059342    0.015196   -0.025762
C      -0.077821   -0.793651   -1.083283
C       0.026558   -2.222909   -0.575922
C       1.499561   -2.633484   -0.388889
O       2.205505   -1.648057    0.358769
C       1.521631   -1.197749    1.522828
C       0.046689   -0.890439    1.202512
O      -0.518810   -2.125539    0.749231
H       0.874906    1.867271    0.530904
H      -0.094409    1.955310   -0.947570
H      -0.880578    1.885917    0.641953
H      -0.071319   -0.510970   -2.128129
H      -0.533977   -2.974765   -1.138819
H       1.524258   -3.606363    0.126321
H       2.027316   -2.723976   -1.343790
H       1.547801   -1.962774    2.314379
H       2.065623   -0.312990    1.870211
H      -0.497445   -0.548668    2.088749
