19

O      -0.161575    1.444730    0.093908
C      -0.007072    0.063632    0.001185
C      -1.238067   -0.836200   -0.023602
C      -2.620101   -0.212266    0.088262
C      -3.555778   -0.504278   -1.064106
C      -3.265187   -0.521034   -2.364550
C      -1.951734   -0.242926   -3.043425
O      -0.923720    0.293562   -2.220566
C      -0.420680   -0.604538   -1.277251
H      -0.422293    1.748149   -0.786249
H       0.880901   -0.289784    0.517010
H      -1.123229   -1.815777    0.431943
H      -3.083613   -0.559248    1.017440
H      -2.505775    0.872532    0.208933
H      -4.589077   -0.703230   -0.786899
H      -4.061957   -0.754616   -3.070139
H      -1.585864   -1.158681   -3.539676
H      -2.103927    0.497766   -3.838414
H       0.173308   -1.415930   -1.698498
