22

C      -0.603994    1.402137    0.073798
C       0.133514    0.080273   -0.039069
O       1.210449    0.233211   -0.991691
C       2.232289   -0.624101   -0.691944
N       3.292731   -0.743912   -1.367189
C       1.883102   -1.383485    0.567041
C       0.806260   -0.501378    1.235869
C       1.479339    0.592067    2.082761
C      -0.183770   -1.301172    2.086714
H       0.063880    2.204524    0.395664
H      -1.027702    1.679621   -0.895102
H      -1.425935    1.319825    0.791848
H      -0.553987   -0.679937   -0.440021
H       3.266500   -0.125540   -2.180443
H       1.467083   -2.359650    0.288389
H       2.767028   -1.563981    1.180411
H       2.170731    1.196578    1.487414
H       0.743214    1.263924    2.534157
H       2.052853    0.135879    2.896080
H       0.322886   -1.767980    2.937720
H      -0.973702   -0.657608    2.489453
H      -0.660762   -2.096539    1.504139
