17

O      -0.084480    1.380621    0.024827
C       0.019973    0.010988    0.028963
C      -0.880116   -0.820945    0.866209
C       0.626584   -0.977359    1.020307
C       1.294616   -1.741886   -0.149724
C       0.365620   -2.225988   -1.220298
C       0.702102   -0.748374   -1.166776
C       1.369314   -0.026352   -2.187943
C       1.928144    0.648049   -3.016887
H       0.713970    1.736372   -0.385996
H      -1.317873   -0.250828    1.680886
H      -1.534218   -1.598687    0.484505
H       1.119448   -0.811064    1.968717
H       2.329804   -2.054897   -0.115468
H       0.847432   -2.752730   -2.038249
H      -0.636958   -2.577238   -1.006242
H       2.415751    1.220392   -3.766375
