16

O       0.000168    1.439673   -0.038986
C       0.036445    0.033931    0.030163
C       0.583532   -0.559892    1.370705
C      -0.653054   -1.342804    1.836518
O      -1.206239   -1.830156    0.631878
C      -1.412219   -0.531227    0.045419
C      -2.169749    0.153529    1.167732
N      -3.088272    1.006603    1.090604
O      -1.632835   -0.393208    2.314154
H       0.900888    1.764965   -0.127665
H       0.567976   -0.396416   -0.827405
H       1.431963   -1.230295    1.216396
H       0.861102    0.227657    2.073654
H      -0.531586   -2.134124    2.573375
H      -1.929428   -0.591404   -0.906664
H      -3.406540    1.286154    2.020303
