18

C       0.338287    1.545229   -0.095317
C       0.090636    0.063588    0.071830
O       0.849735   -0.752542   -0.854142
C       1.255313   -1.656345    0.200108
C       2.751181   -1.913773    0.232543
N       3.553842   -0.864607    0.847655
C       2.990376   -0.052406    1.629288
O       1.682950    0.047909    1.997367
C       0.707998   -0.694703    1.274223
H       1.398203    1.785126    0.012827
H       0.013201    1.860168   -1.091434
H      -0.228885    2.114165    0.648286
H      -0.982940   -0.159860   -0.017999
H       0.693817   -2.598662    0.142147
H       2.943467   -2.848131    0.777467
H       3.104680   -2.073093   -0.792293
H       3.564886    0.711755    2.149584
H       0.012879   -1.097074    2.012010
