12

N      -0.029051    1.368946   -0.112126
C      -0.008255    0.009461   -0.046035
N      -1.163829   -0.660482   -0.023375
C      -1.088082   -1.993110   -0.001873
N       0.005572   -2.747695    0.006695
C       1.168390   -2.072158   -0.007366
C       1.204731   -0.701457   -0.034644
F       2.359427   -0.016317   -0.042349
H       0.812554    1.873422    0.108253
H      -0.909970    1.815024    0.085449
H      -2.039452   -2.519194    0.013430
H       2.093290   -2.643092    0.004486
