20

C      -1.675989   -1.104614   -0.709471
C      -0.368609   -0.437667   -0.228843
C      -0.050733   -0.899927    1.124805
N       0.195319   -1.277326    2.189658
C       0.803106   -0.647097   -1.204021
C       0.642707    0.127146   -2.500813
O       0.513593    1.524910   -2.287983
C       2.218526   -0.786623   -0.684539
C       1.501710   -1.980226   -1.266470
H      -1.982903   -0.686615   -1.670573
H      -1.540433   -2.183179   -0.824739
H      -2.482096   -0.932809    0.007716
H      -0.535438    0.645022   -0.166784
H       1.491834   -0.104203   -3.161676
H      -0.267003   -0.169627   -3.032569
H       1.314086    1.825299   -1.843425
H       3.015618   -0.336387   -1.268272
H       2.383860   -0.773346    0.386337
H       1.181464   -2.751715   -0.574400
H       1.812476   -2.351990   -2.237169
