23

C      -0.256114    1.563079   -0.031966
C       0.025361    0.061413   -0.006673
C       0.793287   -0.489927   -1.248033
C       1.919010   -1.301448   -0.569776
C       3.002959   -0.341685   -0.031199
C       2.272335    0.256953    1.205245
C       0.909524   -0.483413    1.157915
C       0.205593   -0.648457    2.486910
O       1.294760   -1.770412    0.632166
H       0.652192    2.149438   -0.205227
H      -0.957483    1.808702   -0.836243
H      -0.704002    1.906932    0.907122
H      -0.932877   -0.463419    0.074093
H       0.156866   -1.132428   -1.861447
H       1.182440    0.306088   -1.890779
H       2.293332   -2.150357   -1.142772
H       3.896022   -0.896886    0.265581
H       3.303372    0.410150   -0.766015
H       2.793312    0.008653    2.133551
H       2.172839    1.343669    1.165901
H      -0.090038    0.325000    2.890926
H      -0.693891   -1.261356    2.375129
H       0.863831   -1.132911    3.214052
