16

O       0.044215    0.015574   -0.525359
C       0.046158    1.138312   -0.112545
O      -1.090785    1.776452    0.291301
C      -0.803432    3.116725    0.757187
C      -0.712674    3.059863    2.282795
C       0.641546    2.340961    2.483682
N       1.486906    2.731600    1.321095
C       0.643513    3.412651    0.339917
C       1.210797    2.082895    0.014652
H      -1.563194    3.782630    0.348325
H      -0.672214    4.076367    2.688276
H      -1.561065    2.537992    2.730184
H       1.152887    2.661443    3.393856
H       0.525729    1.254144    2.532718
H       0.957381    4.359450   -0.084576
H       2.076006    1.895341   -0.609692
