18

O       0.072953    1.338487    0.266831
C      -0.042479   -0.064066   -0.000783
C      -1.529066   -0.441841   -0.020077
C      -2.395891    0.457832   -0.931756
N      -1.640171    0.972337   -2.088444
C      -1.041315   -0.036278   -2.880299
C       0.140889   -0.593432   -2.577824
C       0.797367   -0.402272   -1.268088
O       1.996439   -0.553273   -1.115559
H       1.015963    1.534545    0.323214
H       0.453020   -0.632949    0.797973
H      -1.595899   -1.489869   -0.330987
H      -1.911822   -0.394219    1.005129
H      -3.276815   -0.089373   -1.283197
H      -2.752626    1.328671   -0.376585
H      -0.910001    1.559494   -1.694575
H      -1.586359   -0.319551   -3.780019
H       0.663912   -1.234545   -3.281343
