14

C       0.397836    1.291165   -0.752400
N       0.604913   -0.088302   -1.147651
C      -0.078190   -0.975078   -0.595726
O       0.033633   -2.314417   -0.907507
C       1.018655   -2.708423   -1.733329
C       0.956812   -3.359983   -2.925729
N       2.253048   -3.636045   -3.272792
N       3.059332   -3.213744   -2.407677
O       2.279532   -2.588830   -1.352496
H       0.124121    1.879100   -1.634252
H      -0.379260    1.422843    0.015074
H       1.339539    1.699647   -0.372132
H      -0.850801   -0.862727    0.168545
H       0.111683   -3.635910   -3.530107
