19

C       0.172527    1.464703   -0.108736
C       0.078921   -0.040540   -0.040342
C       0.199185   -0.819531   -1.192294
C       0.092376   -2.212096   -1.148006
C       0.201588   -3.028228   -2.420549
O       1.076021   -2.468037   -3.387601
C      -0.131504   -2.834818    0.079874
C      -0.256530   -2.072147    1.238371
C      -0.150452   -0.686673    1.179100
H       0.654826    1.793242   -1.033305
H      -0.822197    1.925973   -0.076311
H       0.740955    1.869621    0.734610
H       0.387212   -0.343880   -2.149906
H       0.485685   -4.062382   -2.170369
H      -0.774338   -3.081821   -2.918678
H       1.937900   -2.363574   -2.970290
H      -0.201728   -3.917730    0.131039
H      -0.425081   -2.561250    2.192542
H      -0.239822   -0.098631    2.088032
