20

C       0.089798    1.380282    0.204378
O      -0.045257   -0.023781    0.216135
C      -1.354330   -0.562724    0.035441
C      -2.310096   -0.151458    1.169031
C      -1.941057   -0.206522   -1.341694
C      -1.190990   -2.103118    0.093233
C       0.192462   -2.672624    0.309117
O      -2.168103   -2.805369   -0.035053
H       1.151819    1.588672    0.356728
H      -0.215895    1.824977   -0.752248
H      -0.476640    1.864849    1.011028
H      -2.580641    0.905908    1.100135
H      -3.223207   -0.746286    1.102131
H      -1.847470   -0.329086    2.144821
H      -1.218442   -0.422816   -2.134659
H      -2.838468   -0.803812   -1.514796
H      -2.213466    0.851060   -1.398917
H       0.614706   -2.296111    1.245592
H       0.133279   -3.761353    0.324241
H       0.868669   -2.333895   -0.481476
