17

N      -0.167186   -1.049574    0.530912
C      -0.086175    0.054184    0.199499
C       0.030071    1.458550   -0.210813
C       1.449695    1.960116   -0.176395
C       2.116668    2.546728   -1.172073
C       3.456707    2.991874   -0.704096
C       3.444524    3.998879    0.396980
N       3.584925    2.576151    0.716044
C       2.320075    1.895281    1.066687
H      -0.389346    1.565233   -1.216464
H      -0.605405    2.051861    0.461241
H       1.751716    2.701982   -2.180315
H       4.326613    2.878775   -1.345166
H       4.330855    4.591928    0.605781
H       2.497146    4.493795    0.603036
H       1.854381    2.375138    1.937805
H       2.531864    0.857017    1.353308
