16

N      -0.240726    1.265607   -0.033630
C       0.001595   -0.075288   -0.002137
O       1.086384   -0.601461   -0.030540
O      -1.178367   -0.753422    0.140577
C      -1.081344   -2.169658    0.035145
C      -2.306281   -2.756402    0.734426
O      -3.509452   -2.366588    0.105923
C      -1.029809   -2.587807   -1.430198
O      -0.984872   -1.818967   -2.350296
H       0.533643    1.839705   -0.321586
H      -1.165014    1.578367   -0.279273
H      -0.160082   -2.521344    0.517321
H      -2.262949   -3.849365    0.685017
H      -2.278374   -2.465945    1.794616
H      -3.508774   -1.403467    0.069360
H      -1.031330   -3.690922   -1.579035
