15

O      -0.021781    1.420630    0.006745
C       0.021237    0.013492   -0.091188
C       0.809196   -0.692370    1.045558
C       0.063184   -2.001091    1.320110
O       0.529623   -3.027382    1.742853
C      -1.354297   -1.808011    0.853309
N      -1.918970   -0.503077    1.318082
C      -1.369950   -0.616732   -0.039293
H      -0.549298    1.620021    0.790775
H       0.485195   -0.203005   -1.058680
H       1.856423   -0.883055    0.807413
H       0.778783   -0.076826    1.951079
H      -2.007998   -2.663622    0.733237
H      -2.933341   -0.575828    1.284725
H      -2.032961   -0.546049   -0.894842
