13

N       0.050786    1.350535    0.263156
C       0.043539   -0.016204    0.054467
N      -1.043612   -0.779584    0.147182
N      -0.571658   -2.016069   -0.050058
N       0.727319   -2.124868   -0.283710
C       1.138516   -0.865885   -0.213154
O       2.423510   -0.463654   -0.427435
C       3.431751   -1.194656    0.149736
O       4.574361   -0.943919   -0.059665
H       0.777941    1.834482   -0.244337
H      -0.854211    1.780109    0.130555
H      -1.175520   -2.819686   -0.034990
H       3.042356   -1.996990    0.795693
