25

C      -0.349547    1.535190    0.043854
C      -0.011701    0.056865    0.073190
C       1.290020   -0.617038   -0.328245
C       2.608977    0.144338   -0.419360
C       2.782179    1.018588   -1.665549
C       2.723001    0.920278    0.919126
C       1.815498    0.178371    1.930389
C       0.823437   -0.657559    1.116142
C       0.282030   -1.907055    1.773689
H       0.444533    2.174816    0.429637
H      -0.572380    1.865129   -0.977316
H      -1.243227    1.728354    0.648873
H      -0.869220   -0.542123   -0.232059
H       1.197896   -1.499970   -0.955709
H       3.399973   -0.618941   -0.436964
H       2.017428    1.800681   -1.711226
H       3.762606    1.508038   -1.671249
H       2.704176    0.423045   -2.581450
H       3.759822    0.972673    1.265207
H       2.399305    1.956075    0.782816
H       2.413182   -0.505798    2.544815
H       1.322154    0.867403    2.626369
H      -0.323973   -1.665278    2.655829
H      -0.352230   -2.476913    1.086934
H       1.093359   -2.567056    2.104942
