16

C       0.028778    1.468987    0.028556
C       0.013684   -0.023012   -0.027632
N      -0.040953   -0.706130   -1.118954
C      -0.017904   -2.098568   -0.760828
C       1.221751   -2.627537   -0.047328
C       0.080127   -2.154564    0.794251
N       0.107135   -0.764354    1.146097
C      -0.811041   -3.004114   -1.546410
N      -1.448930   -3.757835   -2.148777
H       1.003980    1.836869    0.363778
H      -0.181598    1.869713   -0.962676
H      -0.722381    1.842052    0.734044
H       1.376943   -3.698830   -0.097024
H       2.116833   -2.017681   -0.109217
H      -0.481251   -2.831441    1.425436
H      -0.363984   -0.448118    1.980075
