16

O      -0.293800    1.375469   -0.645672
C      -0.621939    0.024071   -0.781837
C      -1.079377   -0.571188    0.535574
O      -1.181117    0.132672    1.517969
C      -1.371728   -2.070804    0.588934
C      -2.318781   -2.480446    1.743147
O      -3.440809   -3.094070    1.058100
C      -3.136648   -3.050012   -0.253554
N      -2.042196   -2.536107   -0.641345
H      -0.495622    1.599768    0.275716
H      -1.428941   -0.135220   -1.513710
H       0.233737   -0.563178   -1.152446
H      -0.391910   -2.561541    0.668649
H      -1.889976   -3.220456    2.421426
H      -2.673318   -1.620490    2.314345
H      -3.889258   -3.478783   -0.905797
