16

C      -0.000459    1.527026   -0.031894
C      -0.043163    0.034383   -0.028109
C       0.572388   -0.990831   -0.952059
N       1.187023   -0.742927    0.358638
C       0.713730   -2.081938    0.874765
C      -0.345092   -2.105645   -0.235572
O      -0.970122   -3.215906   -0.730638
C      -1.219397   -0.887518    0.138233
O      -2.399154   -0.721444    0.257040
H       0.964347    1.883348   -0.401282
H      -0.795325    1.929498   -0.666572
H      -0.143113    1.919802    0.979696
H       1.033848   -0.867483   -1.922557
H       1.527913   -2.799557    0.730383
H       0.374122   -2.099846    1.916491
H      -0.331076   -3.932622   -0.809134
