22

C       0.438451    1.522570   -0.285082
C      -0.066701    0.119324    0.076545
C       0.102659   -0.896467   -1.110161
C       1.470652   -1.625205   -0.900839
C       1.669259   -1.552696    0.593222
C       2.829684   -1.111775    1.504673
C       1.870949   -0.027884    2.127807
C       0.766351   -0.523130    1.170114
N       0.560671   -1.952570    1.486132
H       1.483189    1.501165   -0.615332
H      -0.158834    1.949012   -1.097007
H       0.374123    2.201891    0.570612
H      -1.127595    0.199562    0.346876
H      -0.715701   -1.623658   -1.109461
H       0.055397   -0.389667   -2.078333
H       1.460794   -2.636773   -1.322748
H       2.280898   -1.081135   -1.400497
H       3.217953   -1.875653    2.182376
H       3.657916   -0.662850    0.950743
H       1.643633   -0.127744    3.191644
H       2.205238    0.990917    1.922773
H      -0.206915   -2.308899    0.921732
