13

C       0.117424    1.477325    0.013860
C      -0.049319   -0.001518    0.001574
C      -1.171686   -0.714581   -0.148310
C      -1.148534   -2.184698   -0.134205
O      -2.132074   -2.872894   -0.264139
N       0.138198   -2.766220    0.046826
C       1.119632   -1.988357    0.176677
F       2.337089   -2.435699    0.347349
O       1.160275   -0.647719    0.173183
H       0.795964    1.793453   -0.785552
H      -0.846697    1.968402   -0.122613
H       0.554862    1.806019    0.962552
H      -2.124145   -0.220048   -0.283437
