15

C      -0.037598    1.425781   -0.256070
N      -0.015068   -0.027370   -0.269724
C      -1.031929   -0.652371    0.163416
O      -2.136215    0.036519    0.638418
N      -3.284398   -0.608047    1.126296
C      -3.273071   -1.894635    1.117073
O      -4.361591   -2.539815    1.579654
C      -2.185939   -2.724908    0.650124
C      -1.094634   -2.101176    0.185833
H       0.904330    1.800168   -0.662719
H      -0.864574    1.827959   -0.856744
H      -0.163999    1.822969    0.760186
H      -5.000591   -1.866003    1.854847
H      -2.293121   -3.801367    0.692529
H      -0.222476   -2.621868   -0.188483
