19

C      -0.041852    1.630070    0.095753
C       1.449314    1.220066   -0.004646
C       1.124013    0.045828    1.000667
C      -0.013760    0.062778   -0.037477
O      -1.089921   -0.777384   -0.256864
C      -1.608294   -0.459961   -1.559319
C      -0.521988   -0.355682   -2.647466
O       0.495005    0.607844   -2.354799
C       1.056897    0.216293   -1.120217
H      -0.375241    2.022663    1.058795
H      -0.441648    2.195155   -0.744234
H       2.317952    1.872391    0.033685
H       1.793663   -0.818184    0.986358
H       0.878103    0.355923    2.017808
H      -2.304963   -1.261206   -1.820586
H      -2.167607    0.484993   -1.508035
H      -0.061014   -1.345983   -2.793651
H      -0.987727   -0.050042   -3.588745
H       1.740945   -0.632992   -1.259502
