15

C       0.044370    1.423893   -0.004670
N       0.031444   -0.018548    0.028977
N      -0.024215   -0.746267   -1.140404
C      -0.022841   -2.025443   -0.796918
C       0.033965   -2.180827    0.615159
C       0.066331   -0.866874    1.079331
N       0.122058   -0.889224    2.430787
N       0.127755   -2.187964    2.884040
C       0.075509   -2.956506    1.807146
H       0.959807    1.823759    0.446047
H       0.004316    1.721023   -1.052121
H      -0.822926    1.841484    0.519245
H      -0.062411   -2.775796   -1.572365
H       0.157013   -0.141440    3.099157
H       0.069877   -4.029270    1.930796
