19

O      -0.093518    1.220288   -0.351215
C      -0.127424   -0.157580   -0.029698
C       0.771854   -0.561417    1.157110
C       0.107940   -1.824462    1.757438
C      -1.321502   -1.884428    1.155387
C      -1.527553   -0.537839    0.457547
O      -1.359105   -2.938657    0.166830
C      -2.337542   -3.856303    0.239117
O      -2.453190   -4.746435   -0.549262
H       0.767900    1.420350   -0.729890
H       0.122263   -0.768779   -0.910215
H       1.812341   -0.729567    0.865549
H       0.759685    0.265982    1.874863
H       0.636807   -2.740581    1.485820
H       0.072543   -1.782696    2.848998
H      -2.088878   -2.092148    1.908277
H      -1.850782    0.213143    1.188476
H      -2.274924   -0.587795   -0.336720
H      -3.011735   -3.697623    1.104392
