18

C       0.020482    1.515676   -0.003659
C       0.040504   -0.007557    0.012915
O       0.647456   -0.431448   -1.197556
C       0.840005   -1.831842   -1.262986
C       1.916357   -2.300307   -0.277675
C       1.690158   -1.687657    1.093189
O       2.173675   -0.349269    1.274244
C       0.763268   -0.552634    1.233426
H       1.044598    1.897216    0.008171
H      -0.479334    1.874605   -0.906798
H      -0.511242    1.904829    0.869897
H      -0.995097   -0.394932    0.056144
H      -0.109757   -2.353391   -1.053877
H       1.124077   -2.056730   -2.294885
H       1.901334   -3.393671   -0.207323
H       2.909641   -2.006592   -0.633265
H       1.861284   -2.331828    1.955345
H       0.246742   -0.393469    2.181719
