22

C      -0.014861    1.540888   -0.042531
C       0.015433    0.007401    0.025945
C       0.841137   -0.460606    1.233302
C      -1.419025   -0.564274    0.027728
O      -2.168910   -0.065128   -1.084695
C      -1.479296   -2.095081    0.073167
C      -2.904673   -2.634522    0.058456
O      -2.828243   -4.051867    0.136352
H       0.995863    1.946086   -0.154714
H      -0.626285    1.886444   -0.878289
H      -0.440258    1.960323    0.877340
H       0.506014   -0.367460   -0.887056
H       1.012216   -1.540084    1.232097
H       1.820523    0.028352    1.237538
H       0.340941   -0.199210    2.173801
H      -1.946623   -0.161745    0.904205
H      -1.739910   -0.384872   -1.886998
H      -0.932033   -2.514904   -0.782925
H      -0.982861   -2.468901    0.974008
H      -3.464172   -2.217894    0.912588
H      -3.417615   -2.305960   -0.855271
H      -3.721742   -4.401910    0.077099
