22

C      -0.159852    1.683274    0.088614
C      -0.051914    0.165679   -0.087979
C      -1.418323   -0.529933   -0.021829
C      -1.448597   -2.109338   -0.093450
C      -0.193364   -2.865117   -0.505745
C      -1.862233   -2.163758    1.413572
C      -2.011794   -0.659326    1.370554
N      -2.493009    0.228727    2.135495
O      -2.954603   -0.341515    3.340390
H       0.828441    2.153277    0.070080
H      -0.758757    2.130203   -0.712816
H      -0.641575    1.930386    1.039077
H       0.415826   -0.065461   -1.053236
H       0.610641   -0.245554    0.683331
H      -2.092056   -0.051776   -0.742245
H      -2.284550   -2.427284   -0.723741
H       0.669385   -2.590705    0.109629
H      -0.345494   -3.944595   -0.396992
H       0.067800   -2.672655   -1.551965
H      -2.764938   -2.723922    1.671042
H      -1.057849   -2.494416    2.081032
H      -3.307162    0.425716    3.803585
