17

O      -0.095694    1.598502    0.243912
C      -0.028332    0.196201    0.030704
C       0.582955   -0.547568    1.223859
C      -0.614274   -0.840434    2.124234
O      -0.624211   -1.148465    3.278667
O      -1.753560   -0.717519    1.387256
C      -1.449266   -0.340323    0.048582
C      -2.561407    0.219693   -0.765067
C      -2.039371   -1.178666   -1.047606
H       0.803156    1.932048    0.334216
H       0.473021   -0.033834   -0.918050
H       1.018995   -1.505825    0.919452
H       1.346995    0.016709    1.761040
H      -3.525733    0.302470   -0.277773
H      -2.323029    1.022761   -1.452575
H      -1.452530   -1.347596   -1.944349
H      -2.659879   -2.012726   -0.740677
