15

O       0.181019    1.471978    0.054298
C       0.117048    0.041248    0.016095
C       0.622453   -0.500007   -1.243982
C       1.053602   -0.887940   -2.295450
C       0.827300   -0.538661    1.219801
N       1.240836   -1.771614    1.397428
C       1.750329   -1.801104    2.676051
C       1.639821   -0.570813    3.269627
N       1.041984    0.230214    2.323502
H       1.025217    1.727411   -0.335530
H      -0.954677   -0.186773    0.094349
H       1.431549   -1.252220   -3.218911
H       2.171109   -2.703972    3.091727
H       1.926931   -0.196202    4.237842
H       0.805115    1.206340    2.388192
