17

C       0.286220    1.471070    0.055210
C       0.121182   -0.012813    0.085708
O       0.630362   -0.780309   -1.061180
C       0.084466   -1.785973   -0.176789
C       0.562326   -1.097098    1.135826
C      -0.844687   -1.216235    1.764160
C      -1.310304   -0.215390    2.780943
O      -0.751443    0.823145    3.041207
C      -1.142950   -0.933356    0.255825
H       1.345376    1.719834   -0.063756
H      -0.262789    1.896055   -0.790758
H      -0.075591    1.911014    0.985416
H       0.127957   -2.834948   -0.466968
H       1.536630   -1.187634    1.614263
H      -1.140549   -2.224866    2.076668
H      -2.253832   -0.493604    3.304615
H      -2.103318   -0.846489   -0.252429
