17

C       0.186030    1.599399   -0.107496
C       0.114017    0.088120    0.033252
N       0.673288   -0.716574   -1.083946
C      -0.234675   -1.279591   -2.063328
C       1.383035   -1.650322   -0.188307
C       2.756297   -1.975309   -0.546473
N       3.851104   -2.225523   -0.819171
C       1.110094   -0.620734    0.957818
O       1.531235   -0.458775    2.055853
H       1.200709    1.912957   -0.364161
H      -0.493070    1.946168   -0.892371
H      -0.106210    2.077662    0.831987
H      -0.910050   -0.227250    0.307828
H      -0.737067   -0.470979   -2.601774
H       0.328027   -1.867873   -2.793748
H      -1.007481   -1.929307   -1.612314
H       0.830306   -2.582972    0.023332
