21

C      -0.025736    1.591005   -0.279836
C      -0.048608    0.096402    0.071828
C      -1.451523   -0.495970    0.082134
C      -2.144416   -0.737137   -1.281004
O      -2.263857   -2.150316   -1.025985
C      -1.575339   -2.029256    0.235308
C       1.372449    2.158713   -0.276923
C       1.676172    3.513515    0.198058
O       1.967559    2.372652    1.007552
H      -0.470752    1.750797   -1.271523
H      -0.636349    2.150255    0.439314
H       0.572542   -0.459772   -0.644057
H       0.415426   -0.039399    1.056569
H      -2.085663    0.051646    0.785815
H      -3.122504   -0.262192   -1.425539
H      -1.519032   -0.531245   -2.161775
H      -0.619561   -2.571364    0.235504
H      -2.185867   -2.388367    1.072680
H       2.056463    1.715948   -1.004586
H       2.543073    4.046117   -0.190856
H       0.867254    4.148035    0.558907
