21

C      -0.144924    1.556608   -0.011870
C       0.028513    0.044997   -0.047354
C       0.729780   -0.606508   -1.247932
C       2.173077   -0.198937   -1.323029
C       1.774581   -1.252993   -0.329794
C       1.126240   -0.614007    0.892777
O       1.979170    0.270366    1.589781
C       0.547066   -1.626967    1.868591
O      -0.128390   -0.874877    2.875885
H       0.808003    2.077434   -0.131543
H      -0.819215    1.888198   -0.809263
H      -0.576408    1.872172    0.944065
H      -0.937322   -0.435822    0.137039
H       0.223049   -1.055429   -2.093922
H       2.713012   -0.572971   -2.187101
H       2.505796    0.774045   -0.977429
H       2.189484   -2.254493   -0.355693
H       1.516529    0.488543    2.409663
H      -0.137726   -2.313610    1.350760
H       1.368952   -2.215570    2.302976
H      -0.337579   -1.458649    3.609993
