19

O       0.003631    0.277205   -0.594715
C       0.174094    1.458657   -0.562104
O       0.973150    2.056495    0.339570
C       1.081236    3.486103    0.321908
C       2.549861    3.908077    0.319277
C       3.265981    3.495495   -0.997009
C       3.284792    4.771245   -1.804067
C       2.949455    5.832482   -1.073270
C       2.642067    5.461613    0.358382
H      -0.296380    2.178317   -1.261380
H       0.564918    3.891489   -0.559154
H       0.577066    3.862695    1.218524
H       3.026544    3.454443    1.191758
H       4.286560    3.139549   -0.803696
H       2.755969    2.668567   -1.504173
H       3.572692    4.795406   -2.849250
H       2.923509    6.857188   -1.426779
H       1.717973    5.923661    0.729977
H       3.439189    5.800700    1.033094
