16

O       0.076242    1.294315    0.303982
C       0.014001   -0.052928   -0.114277
C      -1.426757   -0.565983   -0.088529
C      -1.736228   -2.096908   -0.121233
C      -2.770997   -1.906759    1.054888
O      -2.905066   -2.828327    2.088469
C      -2.044945   -0.586739    1.312620
O      -1.751421   -0.014050    2.331732
H      -0.272600    1.317575    1.204718
H       0.422263   -0.092486   -1.129332
H       0.639926   -0.705082    0.516813
H      -2.042841   -0.002671   -0.796067
H      -2.135077   -2.509996   -1.047211
H      -0.877640   -2.687832    0.209473
H      -3.762513   -1.723139    0.622806
H      -2.259947   -2.606727    2.770477
