18

O       0.064039    1.353596   -0.247035
C      -0.075219   -0.026564   -0.041148
C      -0.489375   -0.747610    1.229542
N      -1.566071   -0.158187    2.036329
C      -1.633998    1.340798    2.212326
C      -2.624883    1.464380    1.017726
C      -2.458635   -0.071011    0.837567
C      -1.386187   -0.718353   -0.052859
O      -1.698658   -1.729865   -0.942686
H       0.886754    1.632699    0.169241
H       0.670892   -0.626600   -0.570566
H       0.142526   -1.523669    1.651708
H      -2.056155    1.596072    3.188505
H      -0.682120    1.858962    2.090295
H      -3.636961    1.754857    1.307308
H      -2.289465    2.083451    0.188058
H      -3.363056   -0.686377    0.873143
H      -1.545709   -1.407923   -1.837363
