21

C      -0.053938    1.267249    0.575672
C      -0.123814   -0.088540   -0.148682
C      -1.514161   -0.583739   -0.351262
C      -2.269149   -0.848044   -1.450786
C      -3.545754   -1.296905   -0.974204
C      -3.484233   -1.273992    0.383920
C      -4.447563   -1.618968    1.466648
C      -3.981806   -2.786258    2.354480
O      -2.246786   -0.840086    0.776056
H       0.985425    1.579272    0.716315
H      -0.570920    2.042919    0.002561
H      -0.527649    1.204231    1.559145
H       0.351072   -0.014940   -1.132378
H       0.451951   -0.830152    0.421184
H      -1.955034   -0.737481   -2.477307
H      -4.397363   -1.596529   -1.565498
H      -4.624714   -0.737069    2.096819
H      -5.405565   -1.862626    0.996057
H      -4.712373   -2.989651    3.143351
H      -3.851457   -3.697998    1.763607
H      -3.024155   -2.552890    2.827805
