21

C      -0.006982    1.337274    0.040409
O      -0.079791   -0.076383    0.003128
C      -1.361434   -0.575260    0.060535
C      -2.411231   -0.460309    1.188652
C      -3.050001   -1.371443    0.118509
C      -2.455014   -0.557805   -1.076379
C      -1.865507   -1.816290   -1.740976
C      -1.684481   -2.079597   -0.227128
C      -1.074932   -3.272961    0.455818
H       1.050460    1.605206   -0.012627
H      -0.535205    1.791223   -0.809825
H      -0.430792    1.740493    0.970613
H      -2.160581   -0.920427    2.149687
H      -2.882857    0.516106    1.338973
H      -4.027382   -1.850177    0.129399
H      -2.911420    0.321628   -1.532618
H      -2.569063   -2.468432   -2.269505
H      -0.950357   -1.682577   -2.325655
H      -0.026163   -3.393663    0.163760
H      -1.107522   -3.170278    1.546140
H      -1.605875   -4.193519    0.189411
