15

C       0.179246    1.463307    0.005997
C      -0.072769   -0.011624   -0.012236
C      -0.370511   -0.782288   -1.090644
O      -0.541001   -2.092751   -0.724785
C      -0.335857   -2.134534    0.611747
O      -0.518139   -3.335846    1.213643
C       0.324454   -4.359536    0.850567
O       0.188464   -5.457767    1.280564
C      -0.046763   -0.911110    1.114812
H       1.179473    1.693820    0.389205
H       0.099579    1.888403   -0.998100
H      -0.539999    1.983372    0.648296
H      -0.491777   -0.573868   -2.140381
H       1.102591   -4.026277    0.144129
H       0.155477   -0.675918    2.147130
