21

C      -0.299564    1.323265   -0.150941
O      -0.008417   -0.049621   -0.057141
C       0.567214   -0.571321   -1.236711
C       0.826518   -2.050923   -1.012912
C      -0.464431   -2.913773   -0.956559
C      -0.235350   -3.331877   -2.432580
C       1.244015   -2.838209   -2.309099
C       1.846622   -2.130635   -3.420870
C       2.332132   -1.535866   -4.347565
H       0.606227    1.922745   -0.335434
H      -1.018104    1.535707   -0.958966
H      -0.738614    1.631903    0.801145
H      -0.108854   -0.415786   -2.095186
H       1.508502   -0.050234   -1.476304
H       1.511846   -2.161591   -0.168828
H      -0.367414   -3.756016   -0.266794
H      -1.385277   -2.377253   -0.721580
H      -0.374828   -4.382296   -2.695680
H      -0.800972   -2.717939   -3.136601
H       1.887218   -3.676458   -2.021187
H       2.765299   -1.016238   -5.165854
