20

O       0.073985    1.429213    0.143572
C       0.045635    0.023084   -0.011104
C       0.775581   -0.699702    1.117937
N       0.091765   -0.438994    2.405101
C      -0.099020   -1.738163    1.712856
C      -1.401473   -1.834255    0.935960
C      -2.683130   -1.271666    1.617801
C      -2.520710    0.049367    0.812351
C      -1.382172   -0.604561   -0.026885
H      -0.136653    1.591182    1.071827
H       0.549068   -0.177534   -0.962957
H       1.858211   -0.775700    1.103934
H       0.748178   -0.559738    3.171598
H       0.317015   -2.623598    2.184072
H      -1.493678   -2.824192    0.481038
H      -3.582538   -1.831728    1.350504
H      -2.637182   -1.179362    2.704761
H      -3.393654    0.367567    0.237936
H      -2.188765    0.889472    1.423089
H      -1.696296   -0.823715   -1.049140
