17

O       0.104493    1.233319    0.607104
C       0.006544    0.010678   -0.106834
C      -1.341667   -0.559853   -0.101997
C      -2.473566   -0.974559   -0.120003
C      -3.829267   -1.505476   -0.075056
C      -3.818104   -3.044132    0.120292
O      -5.117269   -3.567321    0.288159
C      -4.594231   -0.857445    1.087021
O      -5.591533   -0.205062    0.953119
H      -0.565776    1.829372    0.256486
H       0.346914    0.121882   -1.148846
H       0.706839   -0.675917    0.381445
H      -4.377115   -1.257449   -0.993075
H      -3.279917   -3.505129   -0.719378
H      -3.269654   -3.286574    1.035729
H      -5.617514   -3.416193   -0.520730
H      -4.134628   -1.044143    2.082215
