12

N       0.033129    1.291860    0.226440
C      -0.036400    0.045010    0.044648
N      -1.260460   -0.619206   -0.046956
C      -1.518703   -1.374344   -1.034169
C      -0.650911   -1.641945   -2.222682
O      -1.097239   -2.076194   -3.258829
N       0.729822   -1.427151   -2.080927
N       1.524004   -1.398635   -0.933753
N       1.157651   -0.779458    0.075076
H       1.008503    1.578948    0.330540
H      -2.484072   -1.877370   -1.081626
H       1.253375   -1.827258   -2.851471
