18

C      -0.065007    1.558442    0.040532
C       0.105520    0.063218   -0.007078
N      -0.756761   -0.821255    0.838148
C       0.700736   -0.781058    1.075826
C       1.449220   -1.945876    0.439396
C       1.174884   -1.750306   -1.040331
C       1.634391   -2.676201   -2.075147
O       2.260098   -3.690381   -1.853406
C       0.464302   -0.634503   -1.277593
H       0.803253    2.070223   -0.387934
H      -0.950675    1.874739   -0.522482
H      -0.182143    1.904961    1.072299
H      -1.211309   -0.236552    1.539221
H       1.064115   -0.338060    1.997455
H       2.524289   -1.912058    0.650320
H       1.083601   -2.915309    0.792496
H       1.372950   -2.375928   -3.114844
H       0.164956   -0.282481   -2.259534
