19

C       0.085215    1.482985    0.086560
C      -0.009815   -0.032624   -0.047555
N      -1.402929   -0.464487    0.060957
C      -1.658984   -1.831342    0.017906
C      -2.885944   -2.473750    0.014808
C      -4.285906   -1.964603    0.015597
N      -2.529921   -3.787984    0.021893
N      -1.203090   -3.960308    0.046571
N      -0.667318   -2.765523    0.035833
H       1.127847    1.807418    0.025615
H      -0.464339    1.989895   -0.716172
H      -0.328346    1.817746    1.042484
H       0.450703   -0.363690   -0.991486
H       0.551461   -0.524718    0.751714
H      -2.013628    0.066422   -0.546091
H      -4.711298   -1.887090   -0.993167
H      -4.949593   -2.607337    0.603457
H      -4.314217   -0.966895    0.463949
H      -3.129727   -4.597670    0.025453
