18

O       0.186847    1.342319   -0.112656
C       0.023055   -0.044306    0.144649
C      -1.420602   -0.459253    0.087754
C      -2.483700   -0.122486    1.133645
C      -2.956546   -1.589781    0.975648
N      -1.857497   -1.903832   -0.012765
C      -2.046030   -0.973220   -1.168883
C      -3.333303   -0.560990   -1.648790
C      -4.406567   -0.216185   -2.069742
H      -0.170744    1.521363   -0.988952
H       0.611247   -0.669915   -0.544636
H       0.419446   -0.207531    1.152727
H      -2.053221    0.089936    2.113896
H      -3.188514    0.669276    0.871803
H      -2.813875   -2.202556    1.866930
H      -3.961003   -1.751799    0.578090
H      -1.338852   -1.223952   -1.956995
H      -5.352140    0.088053   -2.445686
