19

C      -0.159510    1.522735    0.008893
C       0.124711    0.024247    0.045161
C       0.881631   -0.524339   -1.180908
C       1.435173   -1.876332   -0.705436
N       1.570878   -1.697379    0.744379
C       1.031591   -0.420765    1.206163
C       2.079803   -2.667686    1.538155
O       2.498462   -3.737245    1.139177
H       0.770072    2.096227   -0.081870
H      -0.795754    1.781225   -0.843349
H      -0.671581    1.856033    0.917634
H      -0.824226   -0.521006    0.134004
H       0.247909   -0.620060   -2.065812
H       1.704873    0.154024   -1.435787
H       0.747158   -2.704114   -0.915504
H       2.397653   -2.137029   -1.154433
H       1.830940    0.319011    1.366555
H       0.491548   -0.538218    2.150643
H       2.073640   -2.381101    2.609774
