23

C       0.525069    1.570137    0.116495
C       0.231237    0.093025   -0.056990
C      -0.182433   -0.438632   -1.219619
C      -0.301981    0.360956   -2.499991
C      -0.557841   -1.901604   -1.466826
C      -1.248107   -2.663803   -0.360812
C      -0.726784   -2.817950    0.852112
C       0.579797   -2.175265    1.231942
C       0.486524   -0.642467    1.249271
H       0.118589    1.919564    1.073827
H       1.606566    1.759621    0.156403
H       0.101491    2.202465   -0.663157
H       0.131768    1.358903   -2.446426
H       0.204278   -0.169390   -3.317265
H      -1.352243    0.461547   -2.806339
H      -1.201123   -1.922597   -2.352980
H       0.349767   -2.448407   -1.773968
H      -2.205361   -3.118525   -0.602736
H      -1.261236   -3.386650    1.608686
H       0.902788   -2.516826    2.220605
H       1.367420   -2.476899    0.527577
H       1.427164   -0.245099    1.659044
H      -0.284630   -0.342255    1.974985
