21

C       0.078403    1.518711   -0.088414
C       0.011560   -0.002746    0.066497
O       0.698606   -0.441770    1.239189
C      -1.405957   -0.543316    0.034929
C      -2.324688   -0.482385   -1.241542
C      -3.112088   -1.577224   -0.443527
C      -1.705540   -2.085697    0.022799
C      -3.531218   -0.767295    0.791173
C      -2.423909   -0.091985    1.107289
H       1.118837    1.852567   -0.054915
H      -0.360912    1.838657   -1.038790
H      -0.468468    2.022906    0.716957
H       0.571299   -0.462862   -0.757206
H       0.223543   -0.096350    2.002858
H      -2.840359    0.458310   -1.449051
H      -1.834323   -0.867857   -2.142133
H      -3.845039   -2.229608   -0.916708
H      -1.153427   -2.621555   -0.756593
H      -1.648747   -2.615354    0.975506
H      -4.503656   -0.769088    1.263106
H      -2.252647    0.614353    1.908477
