15

O      -0.076443    0.122694    0.743309
C      -0.066266    1.161577    0.146215
C      -1.352412    1.940635   -0.119002
O      -1.252985    3.038673   -1.001618
C      -0.078138    3.776518   -0.766087
C       1.140037    2.901030   -1.061660
O       1.113834    1.706563   -0.239088
C       1.237527    2.536771   -2.472126
C       1.326501    2.253233   -3.635336
H      -2.082819    1.244375   -0.535656
H      -1.722230    2.260040    0.869453
H      -0.092194    4.639825   -1.434632
H      -0.025695    4.130790    0.276283
H       2.051962    3.423821   -0.752470
H       1.403411    1.996733   -4.663510
