17

N      -0.110777    0.909084    0.972355
C      -0.044109   -0.111849    0.210183
N      -1.181635   -0.706231   -0.281902
C      -1.177775   -1.608732   -1.423239
C      -0.724373   -3.023739   -1.021617
C       0.398777   -2.946453    0.006794
O       1.437336   -2.034271   -0.398588
C       1.314656   -0.704562   -0.192104
O       2.274301    0.006587   -0.311391
H       0.831796    1.205434    1.221824
H      -2.019611   -0.178821   -0.088897
H      -2.188163   -1.635478   -1.836712
H      -0.525411   -1.227139   -2.219098
H      -1.552205   -3.584795   -0.573309
H      -0.398523   -3.569221   -1.913209
H       0.008228   -2.644838    0.982507
H       0.902882   -3.907630    0.123110
