17

O      -0.070464    0.002894    0.192126
C      -0.064199    1.206761    0.009264
C      -1.401782    1.950748   -0.075203
O      -1.320004    3.362128    0.087214
C      -0.966029    3.772418    1.353829
N       0.155298    4.217685    1.699540
C       1.301366    4.244982    0.805392
C       1.318616    3.324741   -0.436176
N       1.094177    1.912910   -0.141989
H      -1.837415    1.778781   -1.063382
H      -2.063036    1.492294    0.670174
H      -1.783473    3.720840    2.077433
H       1.445269    5.280645    0.468711
H       2.174122    4.009782    1.427061
H       0.607592    3.669292   -1.185123
H       2.317130    3.399228   -0.880815
H       1.908821    1.326456   -0.030549
