18

C      -0.034512    1.489046    0.008973
C      -0.026634   -0.016393   -0.048114
C       0.251522   -0.823020   -1.345951
C      -0.474316   -1.977226   -0.615758
C       0.303614   -2.246474    0.694715
C      -0.653650   -1.459679    1.563588
C       0.636362   -0.813192    1.108222
C      -1.285889   -0.933264    0.241464
H       0.973794    1.895541   -0.138212
H      -0.680507    1.915414   -0.766344
H      -0.394801    1.845042    0.981060
H      -0.339369   -0.440950   -2.186215
H       1.290436   -0.970138   -1.659894
H      -0.930744   -2.816561   -1.138794
H       0.926050   -3.091614    0.958154
H      -1.042801   -1.655460    2.553765
H       1.514064   -0.554977    1.687594
H      -2.315619   -0.638138    0.052360
