18

C      -0.050632    1.391714   -0.048837
N      -0.000553   -0.050472   -0.036101
C      -1.189576   -0.867614    0.123152
C      -0.665507   -2.303915    0.075237
O      -1.306670   -3.248147    0.869940
C       0.069223   -2.713065   -1.164288
C       0.835340   -2.212385    0.057365
C       1.185832   -0.749435    0.045198
O       2.292369   -0.253559    0.092466
H       0.976400    1.755113   -0.113726
H      -0.623668    1.762790   -0.907283
H      -0.511170    1.784500    0.867530
H      -1.672993   -0.691734    1.095347
H      -1.926649   -0.655158   -0.663954
H      -2.049679   -3.607777    0.373305
H       0.140427   -3.779831   -1.346889
H       0.028252   -2.089452   -2.052106
H       1.479047   -2.895177    0.594252
