25

C      -0.009833    1.532928   -0.102034
C       0.046076    0.021219    0.023271
C      -1.081226   -0.687178   -0.706393
C       1.399411   -0.656231    0.042068
C       0.553485   -0.626030    1.296530
C       0.980827    0.144426    2.532903
C       1.824079   -0.688197    3.480360
C       3.319099   -0.776632    3.309026
C       2.734644   -0.026800    4.482580
H       0.832131    2.025082    0.390946
H       0.009994    1.830207   -1.157372
H      -0.932931    1.934550    0.333567
H      -1.067701   -0.451913   -1.777708
H      -1.003509   -1.774142   -0.603912
H      -2.059855   -0.383888   -0.314572
H       1.521704   -1.596278   -0.486619
H       2.279911   -0.020926    0.018142
H       0.063009   -1.567845    1.538560
H       1.547853    1.038570    2.248556
H       0.089979    0.504927    3.066954
H       1.337140   -1.599995    3.819580
H       3.810288   -1.725397    3.495329
H       3.771980   -0.194668    2.513049
H       2.796117    1.056969    4.472335
H       2.823723   -0.463959    5.471152
