14

O      -0.008080   -0.031625   -0.481616
C      -0.038224    1.131998   -0.158215
C      -1.285401    1.861320    0.159288
C      -1.304352    3.197690    0.278680
C      -0.097846    4.003859    0.010260
C       1.004638    4.234897    1.014232
N       1.170389    3.314529   -0.104892
C       1.256841    1.930106    0.120435
O       2.243926    1.397276    0.554751
H      -2.177280    1.254744    0.282089
H      -2.229893    3.729779    0.484273
H      -0.242590    4.797182   -0.724152
H       1.576651    5.156709    0.968590
H       0.900505    3.793541    2.001582
