13

C       0.993084    1.102387    0.076984
N       0.363380    0.128015   -0.816524
C      -0.380632    0.593120    0.366603
C      -0.623250   -0.424668    1.404804
N      -1.528241   -0.281992    2.337254
O      -1.454744   -1.411457    3.105514
N      -0.496539   -2.267307    2.641509
C       0.022091   -1.681296    1.600215
H       1.836076    0.724068    0.647905
H       1.083760    2.137611   -0.240536
H       0.008613    0.579154   -1.654792
H      -1.198564    1.294653    0.232741
H       0.802390   -2.143149    1.017360
