15

C      -0.112799    1.497535    0.187275
C       0.033289   -0.003054    0.025323
C       1.368366   -0.593904   -0.356775
C       0.826070   -0.796977    1.034646
C      -1.190077   -0.665954   -0.548090
F      -1.492674   -0.174486   -1.763281
F      -1.040811   -1.995430   -0.684195
F      -2.269118   -0.465744    0.229988
H       0.802676    1.922074    0.606924
H      -0.302247    1.979061   -0.776663
H      -0.941347    1.740254    0.859238
H       1.378497   -1.448472   -1.022189
H       2.188472    0.100892   -0.499043
H       1.271898   -0.242375    1.852696
H       0.474314   -1.787058    1.297662
