20

C      -0.061912    1.395929   -0.038393
O      -0.066299   -0.026892   -0.039554
C       0.655913   -0.609941   -1.015077
N       0.711648   -1.862970   -1.111903
C       1.515894   -2.414681   -2.185922
C       2.555474   -3.398387   -1.630615
C       1.921919   -4.599612   -0.904900
C       3.494122   -3.889646   -2.711492
O       3.442378   -3.577928   -3.874800
H       0.951728    1.795095    0.088865
H      -0.496323    1.799724   -0.960884
H      -0.675222    1.703793    0.809095
H       1.167394    0.094836   -1.690362
H       0.857590   -2.959749   -2.874291
H       2.026673   -1.643547   -2.783653
H       3.188158   -2.868556   -0.900232
H       1.300482   -5.184703   -1.591483
H       2.686847   -5.263304   -0.489066
H       1.286349   -4.242274   -0.093106
H       4.272520   -4.600937   -2.346573
