14

N      -0.110571    1.264485    0.089756
C       0.021440   -0.064955   -0.103135
O       1.050797   -0.621309   -0.436609
C      -1.273627   -0.918272    0.051174
O      -0.927196   -2.271748   -0.032067
C      -1.982840   -0.597478    1.289280
C      -2.583315   -0.310731    2.300772
C      -3.253458    0.010085    3.440425
C      -3.847982    0.298198    4.450990
H       0.717713    1.837024    0.053513
H      -0.930149    1.631658    0.544938
H      -1.925104   -0.637189   -0.795984
H       0.023875   -2.260028   -0.245900
H      -4.371830    0.545395    5.341001
