14

O       0.044371    0.001046    0.057132
C       0.002353    1.188519    0.059570
C      -1.081592    2.287721    0.013995
C      -1.312029    2.851644    1.416756
N      -0.005838    3.088196    2.028016
C       1.192825    2.916254    1.382757
O       2.274375    3.145319    1.873154
C       0.983015    2.373412   -0.041814
O      -0.101921    3.126494   -0.657261
H      -2.002346    2.143103   -0.553740
H      -1.880460    3.787608    1.346045
H      -1.897628    2.136530    2.008368
H       0.043570    3.524155    2.936996
H       1.904695    2.342334   -0.619738
