15

N       0.019948   -1.167404   -0.015237
C       0.010967   -0.011109   -0.009011
C       0.009542    1.433405    0.010084
C      -0.301656    2.262291    1.314197
C       0.364389    3.395090    0.461000
C       1.335937    2.282088   -0.060657
C      -0.622301    3.474266   -0.713076
C      -0.859356    2.197054   -1.013905
H      -1.353707    2.375599    1.579677
H       0.296411    1.945023    2.172582
H       0.728606    4.317538    0.908106
H       2.082310    1.966607    0.673215
H       1.777805    2.413460   -1.049406
H      -1.012853    4.374099   -1.165271
H      -1.484720    1.739640   -1.765403
