23

C       0.217414    1.624172   -0.262986
C       0.086260    0.171343    0.214765
C       0.573157    0.003213    1.660842
C      -1.350972   -0.323972    0.076023
C      -2.017810   -0.446607   -1.322349
O      -1.012311   -0.820185   -2.267524
C      -2.793498   -1.681521   -0.793086
C      -1.698310   -1.834838    0.303251
O      -0.663193   -2.729925   -0.043801
H       1.251820    1.972858   -0.173856
H      -0.080112    1.724224   -1.311082
H      -0.410112    2.296767    0.334896
H       0.720476   -0.450642   -0.426095
H      -0.041502    0.587656    2.356802
H       0.532769   -1.045840    1.967384
H       1.607883    0.345925    1.767002
H      -2.011758    0.280497    0.710847
H      -2.595811    0.408346   -1.693601
H      -1.455115   -1.099833   -3.075785
H      -3.767439   -1.409007   -0.376289
H      -2.914580   -2.524149   -1.480251
H      -2.029408   -2.124400    1.303081
H      -0.374350   -2.482015   -0.932248
