20

C      -0.138415    1.609032   -0.004894
C       0.090386    0.092558    0.026691
C       0.773815   -0.487336   -1.223090
C       2.189725    0.054517   -1.450697
O       2.789938   -0.463971   -2.624735
C       0.630873   -2.023664   -1.377258
O      -0.249450   -1.831905   -2.534816
C      -0.080912   -0.472281   -2.483869
N      -0.469519    0.431627   -3.267250
H       0.801101    2.167831    0.036017
H      -0.666177    1.903440   -0.916131
H      -0.738559    1.917811    0.856185
H       0.691778   -0.179910    0.904449
H      -0.875269   -0.412117    0.151256
H       2.164544    1.151245   -1.470411
H       2.832735   -0.248672   -0.616238
H       2.329678   -0.072382   -3.376187
H       1.539699   -2.547557   -1.677570
H       0.110354   -2.550140   -0.574111
H      -1.014648    0.045612   -4.040864
