18

C      -0.144304    1.525555    0.025562
C       0.033336    0.010083   -0.000644
N       0.854750   -0.370277   -1.148027
C       0.785906   -0.511679    1.293240
N       2.164055   -0.020486    1.410345
C       0.020323   -0.177489    2.498094
C      -0.615547    0.120995    3.471553
C       0.840246   -1.993042    1.170103
N       0.858278   -3.136092    1.003520
H       0.825484    2.031454    0.007750
H      -0.708788    1.849100   -0.854789
H      -0.694194    1.841237    0.914348
H      -0.959880   -0.464576    0.005488
H       0.773073   -1.364116   -1.339922
H       0.553490    0.125755   -1.979139
H       2.544865    0.014792    0.465484
H       2.147653    0.923719    1.781336
H      -1.172274    0.370978    4.341438
