15

O       0.019121    1.292077    0.071273
N       0.062721   -0.110611   -0.039495
C      -1.110153   -0.620996   -0.003453
C      -1.244722   -2.142325   -0.110806
N      -2.687598   -2.335763    0.033990
C      -3.318351   -1.153087    0.131614
C      -2.463186   -0.076657    0.131474
C      -2.955094    1.293869    0.253156
O      -4.138670    1.563597    0.367522
H       0.951418    1.528837    0.033946
H      -0.892029   -2.515539   -1.079096
H      -0.691969   -2.662657    0.677986
H      -3.147893   -3.219345   -0.091241
H      -4.396194   -1.097567    0.210227
H      -2.184604    2.082244    0.231933
