15

C      -0.019708    1.398989    0.082330
C       1.431928    1.924853    0.001860
O       2.244702    1.448467    1.080616
C       2.001853    0.134250    1.295616
C       0.974466   -0.568405    0.758378
N      -0.104088   -0.071920    0.033531
O       1.050832   -1.845652    1.248468
C       2.153505   -1.817371    2.043874
N       2.752166   -0.669303    2.121009
H      -0.466187    1.736151    1.024155
H      -0.604685    1.819671   -0.739224
H       1.882262    1.613639   -0.951500
H       1.453542    3.015301    0.063433
H      -0.149481   -0.423075   -0.918434
H       2.434862   -2.747628    2.509601
