19

C      -0.458716    1.466728   -0.169541
C       0.182847    0.096159    0.087196
C       0.876141   -0.471712   -1.126346
N       0.088475   -0.973225   -2.293682
C       0.918496   -1.905096   -1.514945
C       2.249896   -2.144984   -2.189668
O       2.859774   -0.846106   -2.314873
C       2.177260    0.099185   -1.602310
N       2.602627    1.264527   -1.362598
H       0.302861    2.186843   -0.474605
H      -1.211688    1.408222   -0.962614
H      -0.951119    1.834942    0.735373
H       0.912824    0.179321    0.900040
H      -0.578842   -0.621686    0.419133
H      -0.881426   -1.062150   -1.993028
H       0.461464   -2.682923   -0.913395
H       2.901839   -2.785716   -1.584339
H       2.150371   -2.568880   -3.192900
H       3.535805    1.394472   -1.757045
