20

C      -0.363914    1.509863   -0.018145
C      -0.015607    0.025374    0.029188
C       0.872694   -0.467692   -1.134525
C       1.597210   -1.741944   -0.616192
C       1.193427   -1.880973    0.872194
C       0.750382   -0.457468    1.296400
C       1.894676    0.388488    1.625075
C       2.848042    1.073647    1.888340
H       0.540484    2.123472    0.036818
H      -0.886138    1.755950   -0.948754
H      -1.015655    1.796648    0.814206
H      -0.949024   -0.553691    0.017049
H       0.281923   -0.654328   -2.035906
H       1.602982    0.307541   -1.389246
H       1.323685   -2.635217   -1.184222
H       2.680503   -1.628737   -0.709107
H       0.332904   -2.551157    0.974636
H       1.994657   -2.275877    1.500401
H       0.081417   -0.492031    2.164295
H       3.685048    1.679885    2.131736
