18

C      -0.003521    1.559052   -0.049370
C       0.022843    0.034508    0.056641
O       0.736887   -0.408288    1.204577
C      -1.380484   -0.561441    0.052026
C      -2.236225   -0.494516   -1.231106
O      -2.474101   -1.921408   -1.196607
C      -1.549794   -2.102895   -0.106168
C      -0.360911   -2.860380   -0.517428
N       0.560832   -3.466167   -0.861858
H       1.016017    1.952079   -0.028789
H      -0.481964    1.889355   -0.977154
H      -0.559187    1.999722    0.788360
H       0.584407   -0.377046   -0.790308
H       0.369173    0.039142    1.975329
H      -1.928613   -0.210046    0.931958
H      -3.169513    0.073735   -1.176438
H      -1.683771   -0.200017   -2.132854
H      -2.017215   -2.618278    0.739674
