15

C      -0.220762    1.497282    0.011325
C       0.161316    0.023721    0.001311
O       1.297124   -0.370512   -0.009736
N      -0.960403   -0.822665    0.006495
C      -0.981386   -2.226280   -0.000247
O      -0.010383   -2.927422   -0.013410
C      -2.421578   -2.759606    0.011962
O      -2.376792   -4.158055   -0.002833
H       0.691771    2.091762    0.005880
H      -0.823803    1.751605   -0.867138
H      -0.807919    1.743566    0.902752
H      -1.859322   -0.363028    0.016174
H      -2.925184   -2.359417    0.909604
H      -2.947687   -2.341567   -0.864491
H      -3.280195   -4.487002    0.015302
