21

C      -0.082095    1.570276   -0.002765
C      -0.025226    0.060098    0.058147
C       0.997840   -0.642025   -0.877089
O       1.720741   -1.221883    0.241134
C       0.730798   -0.761917    1.145406
C       0.941075   -0.360954    2.593696
C      -0.542693   -0.790307    2.854550
C      -0.602992   -1.514376    1.467187
C      -1.330697   -0.751278    0.329314
H       0.921847    2.008993    0.004772
H      -0.585451    1.907814   -0.917363
H      -0.637130    1.983828    0.846424
H       0.586161   -1.410592   -1.543308
H       1.640768    0.031704   -1.455533
H       1.646181   -1.033268    3.092779
H       1.232571    0.672408    2.804507
H      -0.688815   -1.439914    3.718955
H      -1.235639    0.051346    2.936385
H      -0.678286   -2.601494    1.510317
H      -2.181990   -0.144564    0.655295
H      -1.657814   -1.373409   -0.509669
