20

C       0.164791    1.533648   -0.336135
C       0.119000    0.037986   -0.106030
C       1.392068   -0.763685    0.047085
C       0.464587   -0.575006    1.224581
C       0.909166    0.272348    2.424297
N       0.885682   -0.692583    3.509317
C       0.181889   -1.841999    3.262622
O      -0.028533   -2.730689    4.057733
C      -0.294877   -1.758637    1.808084
H       0.996036    2.000424    0.201954
H       0.296155    1.759883   -1.399677
H      -0.759798    2.020140   -0.005593
H      -0.683632   -0.465363   -0.641058
H       1.448635   -1.746874   -0.409123
H       2.331689   -0.218426    0.048892
H       1.910815    0.694290    2.289166
H       0.218346    1.108429    2.612888
H       1.185753   -0.478234    4.447051
H      -1.380243   -1.596113    1.821274
H      -0.113527   -2.704345    1.292792
