23

C       0.214893    1.233618    0.448307
O      -0.038143   -0.100061    0.072398
C       0.607585   -0.518938   -1.122877
C       2.112214   -0.728403   -0.916224
C      -0.041838   -1.822448   -1.585308
O       0.027158   -2.848839   -0.570162
C      -1.406875   -2.833451   -0.396253
C      -1.591069   -1.957924   -1.653482
C      -2.518875   -0.753047   -1.616144
H       1.260816    1.400106    0.741641
H      -0.032989    1.939340   -0.360560
H      -0.421833    1.450007    1.309952
H       0.444164    0.238011   -1.911432
H       2.590128   -1.023910   -1.855611
H       2.604502    0.183525   -0.568911
H       2.269420   -1.519674   -0.178845
H       0.478230   -2.138363   -2.500668
H      -1.832666   -3.843022   -0.421511
H      -1.691103   -2.337277    0.540090
H      -1.848340   -2.586455   -2.511902
H      -2.321097   -0.126010   -0.745984
H      -2.404495   -0.138675   -2.516482
H      -3.563917   -1.080696   -1.579931
