21

C      -0.427317    1.444399    0.006580
C      -0.008528   -0.039008    0.032473
C      -1.202444   -0.942093    0.363679
C       0.565924   -0.427405   -1.339344
O      -0.160138   -0.918029   -2.191128
N       1.896640   -0.182361   -1.589458
C       2.441454   -0.542039   -2.889002
C       2.849227    0.425416   -0.682206
H       0.418730    2.111666   -0.185453
H      -1.169927    1.610779   -0.780148
H      -0.874397    1.732764    0.963069
H       0.747842   -0.178039    0.811514
H      -1.963895   -0.866458   -0.414958
H      -0.900827   -1.991340    0.428951
H      -1.641129   -0.650196    1.323186
H       2.813169    0.347830   -3.413530
H       3.278415   -1.242635   -2.773481
H       1.651703   -1.006511   -3.475865
H       2.375743    0.757528    0.238002
H       3.651680   -0.279386   -0.423156
H       3.317466    1.299704   -1.153920
