22

C       0.112624    1.438839   -0.284632
C       0.029253   -0.030583    0.154696
C       0.675927   -0.241770    1.532714
C      -1.405339   -0.564468    0.106596
C      -2.423756    0.103871    1.014274
C      -1.911514   -1.060282   -1.240578
C      -1.591269   -2.039317   -0.135524
O      -0.444887   -2.839084   -0.222316
H       1.156607    1.763546   -0.346085
H      -0.345324    1.588582   -1.268004
H      -0.393143    2.103082    0.424784
H       0.605462   -0.627458   -0.559761
H       0.643461   -1.296848    1.817886
H       1.724745    0.073513    1.516583
H       0.174223    0.341885    2.312411
H      -2.566034    1.157867    0.752384
H      -3.399682   -0.384955    0.931071
H      -2.121930    0.056716    2.065827
H      -2.949713   -0.894870   -1.511062
H      -1.215220   -1.024454   -2.072955
H      -2.431234   -2.518784    0.369059
H      -0.584490   -3.483612   -0.923517
