17

O       0.022943    0.051327   -0.035167
C       0.018728    1.251333   -0.003277
C      -1.196125    2.205686    0.017754
C      -0.415787    3.544441    0.056029
C       0.700486    3.281389   -1.012851
C       1.191179    2.221641    0.026568
C       0.693014    3.224865    1.117259
C      -1.174475    4.768089    0.085836
C      -1.805348    5.791666    0.110911
H      -1.816656    2.090485   -0.875238
H      -1.822917    2.043410    0.898982
H       0.387379    2.938491   -2.002381
H       1.391044    4.121865   -1.098957
H       2.191212    1.795995    0.018780
H       1.382800    4.059459    1.252654
H       0.373043    2.830030    2.084993
H      -2.364168    6.694316    0.133317
