17

N      -0.205332    1.196883   -0.266087
C      -0.182429    0.008906    0.149487
O      -1.083314   -0.874748   -0.376247
C      -1.036985   -2.178523    0.094335
O      -0.264156   -2.582001    0.926474
N      -2.008131   -2.887956   -0.531398
C      -2.150534   -4.302205   -0.362974
C      -2.648290   -4.828214    0.955128
C      -3.547017   -4.856127   -0.253854
H       0.515196    1.738040    0.209278
H       0.468827   -0.449705    0.894362
H      -2.498633   -2.423795   -1.279883
H      -1.412689   -4.904509   -0.887424
H      -2.223178   -5.757780    1.314157
H      -2.860158   -4.098339    1.726376
H      -4.366799   -4.146890   -0.285106
H      -3.751446   -5.804764   -0.736286
