17

C      -0.261888    1.362936   -0.070836
N       0.121517   -0.029143   -0.040479
C       0.407066   -0.811171   -1.133103
N       0.354208   -2.087408   -0.971400
C       0.017580   -2.312618    0.404388
C       0.955904   -1.796902    1.489384
C      -0.149944   -0.896806    1.066279
C      -0.873198   -3.451402    0.723525
O      -1.265988   -3.717163    1.835947
H       0.317519    1.954273    0.646731
H      -0.078910    1.760949   -1.071901
H      -1.328794    1.492429    0.157532
H       0.664502   -0.331355   -2.072049
H       0.826106   -2.290995    2.445515
H       1.971988   -1.556796    1.195004
H      -0.964929   -0.628856    1.730585
H      -1.167479   -4.046080   -0.167185
