18

C       0.301880    1.156199    0.446931
N      -0.392018    0.192000   -0.401219
C       0.460802   -0.474603   -1.379082
C       1.363093   -1.585825   -0.777508
O       0.614088   -2.481992    0.012258
C       0.273459   -3.708854   -0.617907
C      -0.376719   -1.015611   -2.466832
N      -1.013151   -1.459107   -3.323434
H       1.145217    0.750072    1.029505
H       0.682930    1.976129   -0.171823
H      -0.416845    1.581524    1.152271
H      -0.828258   -0.528042    0.166929
H       1.117208    0.280353   -1.832150
H       1.916550   -2.104480   -1.571952
H       2.092303   -1.103717   -0.116531
H      -0.370038   -3.564095   -1.493017
H       1.175021   -4.257435   -0.925815
H      -0.263094   -4.302371    0.125776
