18

O       0.571237   -0.262688   -0.235688
C       0.205410    0.883740   -0.254646
C       1.086168    2.068212    0.099502
C       1.150234    3.079263   -1.026955
N       1.868718    2.721979   -2.288378
C       2.387735    3.808200   -1.428759
C       1.994349    5.205156   -1.896348
C       0.482631    5.186122   -1.785271
C       0.024396    4.034269   -1.292667
H      -0.834904    1.147870   -0.552793
H       0.667357    2.548226    0.995361
H       2.080747    1.686434    0.349448
H       2.428588    1.886208   -2.118276
H       3.328124    3.653257   -0.909987
H       2.439933    5.984413   -1.264475
H       2.326438    5.394845   -2.923948
H      -0.133377    6.017979   -2.107532
H      -1.017927    3.787521   -1.128034
