20

C      -0.050612    1.637645    0.434249
C       0.062488    0.143200    0.189445
C       0.798975   -0.479432   -1.023686
C       2.086880   -0.063639   -0.285714
N       1.228157   -0.630253    0.866366
C       0.887097   -1.781891   -0.154698
C      -0.338317   -2.652062    0.148763
C       2.002157   -2.688231   -0.412679
C       2.857619   -3.505736   -0.629385
H       0.809353    2.224425    0.107351
H      -0.931689    2.022263   -0.090833
H      -0.197852    1.822258    1.503730
H      -0.899855   -0.300893    0.441000
H       0.558600   -0.411222   -2.091443
H       2.995320   -0.633839   -0.474331
H       2.311248    0.995533   -0.181608
H      -1.276703   -2.101641    0.210648
H      -0.442981   -3.406712   -0.635277
H      -0.182517   -3.175866    1.096349
H       3.627506   -4.212648   -0.817829
