19

C       0.031581    1.433595    0.006346
O      -0.079614    0.029313    0.061541
C       0.640386   -0.576830    1.124496
C      -0.029318   -1.913018    1.442826
C       0.809042   -2.719128    2.442516
C       2.246744   -2.920815    1.974805
O       2.902090   -3.892212    2.293152
C       2.809192   -1.843651    1.128808
C       2.092156   -0.776235    0.757270
H       1.064874    1.772132   -0.162802
H      -0.582892    1.771589   -0.831321
H      -0.335473    1.904931    0.931409
H       0.587482    0.076221    2.015773
H      -1.038209   -1.736697    1.826522
H      -0.132170   -2.465275    0.501877
H       0.855120   -2.186384    3.403743
H       0.375267   -3.700748    2.647791
H       3.845841   -1.971110    0.831969
H       2.547073    0.000682    0.147181
