23

C       0.087930    1.533844    0.080179
C       0.141582    0.004409    0.064345
C       0.558311   -0.564948   -1.306858
C       0.650790   -2.053522   -1.330740
C      -0.061718   -2.980347   -1.982078
C       0.570572   -4.307978   -1.539316
C       0.730026   -4.043816   -0.002439
C       1.666071   -2.907107   -0.538744
C       2.090797   -3.938029   -1.640363
H       1.065716    1.966987   -0.158769
H      -0.628977    1.912827   -0.656863
H      -0.212998    1.912280    1.062079
H       0.842949   -0.347534    0.831186
H      -0.838143   -0.407623    0.334800
H      -0.156659   -0.231576   -2.069501
H       1.530376   -0.127761   -1.581147
H      -0.886516   -2.857149   -2.670617
H       0.167314   -5.240056   -1.934446
H      -0.162536   -3.742940    0.551420
H       1.268538   -4.838461    0.524883
H       2.392261   -2.397162    0.095231
H       2.758728   -4.721948   -1.267647
H       2.449502   -3.539877   -2.592728
