23

C      -0.204126    1.468346   -0.339712
C       0.118460   -0.012217   -0.197636
C       1.542761   -0.463879   -0.579682
O       1.786598   -0.994130    0.734546
C       0.462326   -0.591138    1.204917
C       0.567155    0.328192    2.444179
C       0.218670   -0.554827    3.674812
C       0.170135   -1.997817    3.131144
C      -0.330576   -1.806466    1.694156
H       0.561149    2.095416    0.129281
H      -0.260550    1.748116   -1.397550
H      -1.168644    1.716254    0.116507
H      -0.656722   -0.606164   -0.692188
H       1.616688   -1.233534   -1.358355
H       2.235038    0.353042   -0.826860
H       1.583485    0.726361    2.494877
H      -0.112606    1.181281    2.363672
H       0.935420   -0.436295    4.491416
H      -0.763804   -0.276158    4.071838
H       1.177867   -2.427146    3.104567
H      -0.458945   -2.661752    3.730300
H      -1.401708   -1.559211    1.694184
H      -0.181430   -2.672009    1.043326
