21

C      -0.142416    1.554103   -0.032893
C      -0.002900    0.035309   -0.084666
C       0.969906   -0.526554   -1.190554
C       2.443170   -0.522672   -0.581949
C       1.732774   -1.486323    0.389437
C       0.941604   -2.031792   -0.825657
O       1.966371   -2.283628    1.559257
C       0.675305   -1.803692    2.077141
C       0.761692   -0.582441    1.119480
H       0.830389    2.039878    0.101792
H      -0.582323    1.941978   -0.957888
H      -0.785026    1.863895    0.798244
H      -0.992140   -0.409256   -0.240841
H       0.815563   -0.187389   -2.214735
H       3.143016   -0.976621   -1.287244
H       2.852418    0.402740   -0.169420
H      -0.032189   -2.500128   -0.660390
H       1.560875   -2.652510   -1.476679
H      -0.123166   -2.524414    1.865576
H       0.727057   -1.603867    3.150176
H       1.308589    0.201037    1.653871
