19

C      -0.142141    1.318993   -0.241981
O      -0.056367   -0.097488   -0.328032
C       0.883251   -0.587669   -1.262435
C       0.728065   -2.137154   -1.253800
C       0.198826   -2.468618   -2.662843
C      -0.336203   -1.115488   -3.138275
O       0.569610   -0.163207   -2.579248
C       2.244985   -0.121082   -0.955322
C       3.357367    0.232490   -0.671660
H       0.793683    1.753142    0.131123
H      -0.378374    1.762591   -1.215066
H      -0.947050    1.533698    0.463817
H       1.675136   -2.628896   -1.032015
H       0.012697   -2.392347   -0.470287
H       1.013793   -2.796053   -3.314580
H      -0.565919   -3.248922   -2.656441
H      -0.324200   -0.981368   -4.222127
H      -1.356390   -0.938055   -2.770205
H       4.342367    0.548130   -0.429681
