12

O      -0.096778    1.318067    0.010267
N       1.089793    2.054679    0.002626
C       2.195502    1.368052   -0.011860
N       2.407208    0.009133   -0.021218
C       1.307724   -0.676702   -0.014131
N       1.148694   -2.029344   -0.019928
C      -0.171783   -2.186249   -0.007720
C      -0.967179   -0.980922    0.006470
C      -0.021904   -0.003933    0.002461
H       3.079542    1.998108   -0.017137
H      -0.592858   -3.187003   -0.009043
H      -2.041673   -0.903307    0.017372
