21

C      -0.137265    1.516043   -0.022867
C       0.010307   -0.003122   -0.002865
O       0.753510   -0.352739   -1.165877
C       1.088186   -1.724788   -1.254714
C       2.357217   -1.875056   -2.121047
C       3.214176   -1.894958   -0.823877
C       1.902936   -2.196621   -0.020704
C       1.587261   -1.470268    1.244364
C       0.684707   -0.491344    1.258905
H       0.844711    1.992053    0.053034
H      -0.607863    1.835881   -0.956055
H      -0.755347    1.852425    0.815003
H      -0.998498   -0.452845   -0.069680
H       0.202495   -2.318269   -1.525245
H       2.376461   -2.833517   -2.646620
H       2.530658   -1.068023   -2.835163
H       4.015983   -2.633685   -0.761566
H       3.616376   -0.909765   -0.579774
H       1.794688   -3.278365    0.119967
H       2.092925   -1.774738    2.158014
H       0.410534    0.010403    2.183334
