15

C       0.163540    1.551418   -0.007300
O       1.559489    1.440182    0.336783
C       1.489676   -0.004042    0.425009
C      -0.038465    0.020637    0.045277
N       0.336594   -0.699336   -1.183821
C       0.183768   -1.001934   -2.515386
C       1.480946   -1.241357   -2.937637
N       2.418269   -1.024311   -1.941193
C       1.670268   -0.703912   -0.913549
H      -0.390017    2.090269    0.769996
H      -0.003298    2.022583   -0.981304
H       1.934232   -0.393853    1.339944
H      -0.860518   -0.402542    0.619103
H      -0.765609   -1.093970   -3.014847
H       1.787667   -1.582733   -3.915720
