20

C       0.032941    1.556752    0.043769
C      -0.051086    0.030211   -0.026536
C       0.741426   -0.544818   -1.199005
C       0.681808   -2.047290   -1.299695
O       0.070457   -2.760319   -0.533576
C       1.470825   -2.670596   -2.477127
O       2.095690   -1.980130   -3.265187
N       1.369032   -4.016300   -2.499099
C       2.010372   -4.845905   -3.495626
H       1.068852    1.893746    0.161558
H      -0.361764    2.019889   -0.867416
H      -0.541627    1.944844    0.890194
H       0.316970   -0.411296    0.906310
H      -1.096658   -0.286619   -0.110354
H       0.404220   -0.138766   -2.162602
H       1.802280   -0.261926   -1.156820
H       0.806941   -4.421297   -1.763977
H       1.273472   -5.419513   -4.068524
H       2.554643   -4.186627   -4.173644
H       2.715280   -5.546573   -3.034729
