19

C       0.054022    1.521312   -0.125380
C       0.037037   -0.003996   -0.001262
C       0.679056   -0.528796    1.294507
C       0.695663   -2.073463    1.366724
C       2.147625   -2.467207    1.129110
O       2.593909   -3.565385    0.925108
C       2.981774   -1.199419    1.202161
N       4.247071   -1.095911    1.094171
N       2.095175   -0.181537    1.420917
H       1.076265    1.912148   -0.164602
H      -0.450350    1.844825   -1.040192
H      -0.456662    1.994979    0.720795
H      -0.999738   -0.362262   -0.030361
H       0.552216   -0.456736   -0.858430
H       0.129608   -0.107706    2.146177
H       0.404603   -2.434093    2.359300
H       0.034016   -2.549895    0.639974
H       4.629474   -2.034854    0.962975
H       2.411153    0.774471    1.424044
