17

C       0.095088    1.519180   -0.036531
C       0.048911    0.018453    0.020315
N       0.046666   -0.696647    1.079060
O       0.120195    0.058137    2.252673
C       0.051467   -0.739891   -1.278703
C       1.314506   -1.537547   -1.648027
C       0.063586   -2.262193   -1.279627
C      -0.631975   -0.093692   -2.371406
N      -1.178618    0.425889   -3.248924
H       0.906669    1.847787   -0.694389
H      -0.834323    1.910918   -0.463606
H       0.237427    1.942230    0.955807
H       0.099686   -0.623043    2.933050
H       1.625798   -1.520511   -2.685837
H       2.113515   -1.491515   -0.917530
H       0.001279   -2.718839   -0.300886
H      -0.498785   -2.749135   -2.066858
