14

C      -0.066979    1.352087   -0.021741
O      -0.040433   -0.083692   -0.106112
C       0.664084   -0.588575   -1.115011
O       1.239938    0.052633   -1.959289
C       0.683311   -2.127427   -1.105090
O       1.136532   -2.590743   -2.351312
C       1.510312   -2.591688    0.017626
C       2.198710   -2.973947    0.924673
H       0.944651    1.742987    0.108555
H      -0.501419    1.778174   -0.928844
H      -0.683213    1.583456    0.846048
H      -0.346475   -2.476830   -0.955317
H       1.643390   -1.857375   -2.732311
H       2.804846   -3.319731    1.725518
