20

C      -0.203962    1.574797   -0.076587
C      -0.094515    0.048655   -0.095211
C       0.903404   -0.464968   -1.145718
C       1.001409   -1.958064   -1.168993
C       1.645037   -2.902908   -0.131262
C       1.901519   -3.929441   -1.290062
C       1.234553   -2.935491   -2.249335
O      -0.089075   -2.695612   -1.750454
H       0.761889    2.040314    0.150406
H      -0.535233    1.959575   -1.047586
H      -0.921410    1.913123    0.677329
H       0.206575   -0.311368    0.896891
H      -1.075905   -0.395016   -0.298776
H       0.601886   -0.119213   -2.141855
H       1.898003   -0.043343   -0.947557
H       2.572900   -2.511109    0.293496
H       0.981966   -3.225168    0.674877
H       2.965311   -4.078437   -1.490398
H       1.405183   -4.899490   -1.210908
H       1.390541   -2.796645   -3.313914
