21

O      -0.325254    1.382786   -0.204144
C      -0.045846    0.013095   -0.045457
C       1.095018   -0.501285   -0.903193
C       2.443230    0.149524   -0.572272
C       3.589701   -0.389979   -1.450732
C       4.876952    0.224549   -1.149698
C       5.925669    0.746938   -0.880706
C      -0.299918   -0.589322    1.316001
C      -1.262071   -0.833050    0.167308
H       0.355422    1.881197    0.260317
H       1.171047   -1.588655   -0.777861
H       0.848437   -0.319118   -1.957508
H       2.377484    1.234371   -0.714558
H       2.691745   -0.017735    0.482327
H       3.665971   -1.478016   -1.322971
H       3.345322   -0.227157   -2.508704
H       6.857901    1.201083   -0.653136
H       0.326354   -1.409627    1.651101
H      -0.628789    0.082687    2.100868
H      -2.211908   -0.312295    0.197384
H      -1.293410   -1.819162   -0.283231
