17

C      -0.039115    1.464095    0.400378
O       0.972997    2.085717   -0.403745
C       1.868650    1.103682   -0.918476
C       2.119214    1.179355   -2.443023
C       1.923909   -0.254515   -2.902130
C       1.416419   -1.044229   -1.949803
C       1.191920   -0.246903   -0.728836
O       1.143479   -0.717270    0.617947
C      -0.003361   -0.020406    0.090959
H       0.151324    1.651382    1.466483
H      -1.009164    1.901110    0.136378
H       2.814869    1.142180   -0.361629
H       1.381311    1.848544   -2.902774
H       3.108671    1.572470   -2.697519
H       2.141878   -0.570104   -3.916532
H       1.160273   -2.091823   -2.041436
H      -0.916230   -0.604329    0.016668
