18

C       0.042311    1.533643   -0.148441
C      -0.042630    0.008662    0.014696
C      -1.452969   -0.484540    0.060788
N      -2.402765   -0.067902    0.883879
C      -3.470658   -0.824155    0.517847
O      -4.636533   -0.674765    1.147721
C      -5.692561   -1.515874    0.691472
N      -3.265162   -1.682338   -0.471062
N      -1.949140   -1.439888   -0.749596
H       1.084169    1.864989   -0.121084
H      -0.394491    1.852594   -1.099510
H      -0.505035    2.029295    0.656364
H       0.488899   -0.495668   -0.800647
H       0.458283   -0.286312    0.944474
H      -6.558973   -1.267364    1.305339
H      -5.911784   -1.331071   -0.365268
H      -5.432340   -2.572375    0.813892
H      -1.490543   -1.958030   -1.480037
