17

C       0.003730    1.567165   -0.378500
C      -0.025061    0.080530   -0.095048
C      -1.359961   -0.468887    0.419374
C      -1.801987    0.159520    1.654652
C      -2.157861    0.693845    2.678570
C      -2.565219    1.295542    3.834046
N      -2.912569    1.810761    4.815862
C       0.833253   -0.829476   -0.896200
N       1.142221   -0.561763    0.521380
H       0.977378    1.866976   -0.777664
H      -0.759815    1.845152   -1.113565
H      -0.186106    2.144188    0.532438
H      -2.134334   -0.334484   -0.347758
H      -1.255280   -1.546272    0.587389
H       0.512396   -1.845892   -1.109393
H       1.460248   -0.385431   -1.664991
H       1.911008    0.099595    0.597129
