16

O       0.045540    1.381603    0.126428
C      -0.030267   -0.001451   -0.011010
C      -1.346117   -0.757525   -0.038087
C      -2.601673    0.043699   -0.368454
C      -2.349636    0.565356   -1.769505
C      -1.180424    0.142494   -2.262303
C      -0.430392   -0.697730   -1.280133
O       0.374713   -1.741535   -1.726804
H      -0.402433    1.775766   -0.632875
H       0.769594   -0.489358    0.537133
H      -1.419283   -1.661591    0.555355
H      -3.512783   -0.565467   -0.323026
H      -2.744224    0.871053    0.339881
H      -3.041383    1.229649   -2.275765
H      -0.771067    0.379309   -3.238082
H      -0.194480   -2.395729   -2.148923
