12

O      -0.877762    1.135285   -0.297743
C       0.181901    0.890401    0.226727
C       1.348124    1.738086    0.118362
C       2.332624    2.431533    0.041731
C       3.506889    3.253775   -0.063541
C       3.863824    3.882600   -1.368902
O       3.303632    4.651300   -0.322918
C       4.578987    2.953841    0.871591
N       5.432499    2.702262    1.607787
H       0.340386   -0.018167    0.839737
H       4.916202    4.058930   -1.581208
H       3.213940    3.688134   -2.218979
