16

C       0.028567    1.541605    0.065431
C      -0.031753    0.017717   -0.042287
N       0.688646   -0.481640   -1.219021
N      -0.046976   -0.705920   -2.317151
C       0.583257   -1.136550   -3.371639
N       1.925940   -1.387540   -3.468217
C       2.627364   -1.162242   -2.402492
C       2.074632   -0.656291   -1.144635
O       2.710919   -0.407162   -0.134334
H       1.063058    1.875865    0.171566
H      -0.411295    2.011099   -0.819130
H      -0.531814    1.871183    0.945108
H       0.433225   -0.444554    0.830842
H      -1.058811   -0.335722   -0.143307
H      -0.021442   -1.316762   -4.251805
H       3.699735   -1.346222   -2.418670
