14

O       0.452086    1.317525   -0.308283
C       0.107521    0.004686   -0.067729
C       0.249892   -0.946056   -1.276376
O      -1.058323   -1.520933   -1.083077
C      -1.322389   -0.705243    0.064159
C      -0.875898   -1.391599    1.380141
C       0.430561   -0.578038    1.306097
O       1.244432   -0.231935    2.117401
H       0.793451    1.688534    0.515893
H       0.304256   -0.370920   -2.207602
H       1.055158   -1.688445   -1.251253
H      -2.287514   -0.198499    0.037728
H      -1.458420   -1.134332    2.269882
H      -0.781767   -2.477268    1.308385
