17

O      -0.070830    1.331969   -0.097784
C       0.003160   -0.067227    0.028832
C       0.687943   -0.690342   -1.208166
N       0.003644   -0.187722   -2.396794
C       0.727888   -0.354075   -3.651501
C       0.081543    0.465064   -4.759307
O       0.084865    0.151618   -5.918836
C       0.749403   -0.411190    1.248342
N       1.336499   -0.724782    2.191905
H      -0.205325    1.473725   -1.048896
H      -1.004243   -0.508426    0.132920
H       1.725207   -0.342497   -1.239514
H       0.701991   -1.786874   -1.121849
H      -0.912818   -0.620507   -2.471751
H       1.741895    0.048887   -3.515701
H       0.836668   -1.393710   -3.993588
H      -0.392362    1.406071   -4.398533
