19

O      -0.003026   -0.029336    0.065932
C       0.022742    1.181078    0.050469
C      -1.208409    2.109937    0.182841
C      -0.669314    3.559349    0.078473
C       0.810693    3.357625   -0.075580
C       1.185275    2.069512   -0.091713
C       2.663371    1.886578   -0.284550
C       3.199980    3.341516   -0.094976
C       1.971429    4.291748   -0.255380
H      -1.928481    1.866073   -0.603779
H      -1.707588    1.911055    1.135962
H      -1.092170    4.103461   -0.775523
H      -0.904572    4.162018    0.964499
H       3.107127    1.180561    0.423874
H       2.881253    1.495490   -1.286472
H       3.605857    3.448715    0.915357
H       4.007169    3.584593   -0.789935
H       1.934869    4.757691   -1.250545
H       1.978020    5.118052    0.464726
