21

C       0.407108    1.250815    0.286146
C       0.029282   -0.175955   -0.127673
N       0.611503   -0.595602   -1.396832
C       2.035310   -0.905142   -1.483024
C       2.434059   -2.112409   -0.662679
C       3.841531   -2.284212   -0.233404
N       2.796344   -1.987172    0.763093
C      -0.158321   -0.696699   -2.520390
O       0.233074   -1.018191   -3.623121
H       1.487117    1.365308    0.421301
H       0.084204    1.973588   -0.468988
H      -0.072874    1.505324    1.236098
H       0.321471   -0.887307    0.652651
H      -1.058494   -0.250446   -0.227840
H       2.233557   -1.084829   -2.542835
H       2.633138   -0.036651   -1.171806
H       1.851345   -3.005732   -0.877470
H       4.273128   -3.278275   -0.166945
H       4.550801   -1.500934   -0.490865
H       2.851564   -1.003037    1.017908
H      -1.217623   -0.447976   -2.311476
