16

C      -0.034232    1.476776    0.118704
C      -0.038791   -0.017250    0.044398
C      -1.244886   -0.927336   -0.240718
C      -0.303111   -2.110257    0.118732
O      -0.738464   -3.341330    0.523033
C       0.643195   -1.036314    0.851929
N       1.203314   -0.680050   -0.520362
C       0.749257   -1.992794   -0.979400
O       1.220402   -2.703655   -1.806941
H       0.948594    1.842158    0.425499
H      -0.270826    1.912866   -0.857215
H      -0.780831    1.826728    0.839458
H      -2.019569   -0.778921    0.519783
H      -1.693106   -0.926275   -1.240053
H      -1.551250   -3.244829    1.030306
H       1.272523   -1.051015    1.730033
