16

C      -0.452939    1.444766   -0.417420
O      -1.020455    0.162726   -0.727326
C      -1.012065   -0.724356    0.278156
O      -0.566368   -0.504249    1.376828
C      -1.609334   -2.050589   -0.092246
N      -2.662774   -2.122409   -1.098373
C      -1.386121   -2.771575   -1.403880
C      -0.602292   -2.190999   -2.539977
O       0.266968   -2.805838   -3.105006
H      -0.536486    2.031931   -1.331278
H      -1.005751    1.919119    0.396708
H       0.593137    1.339187   -0.120488
H      -1.666133   -2.695990    0.779739
H      -3.365370   -2.806329   -0.831287
H      -1.291542   -3.852217   -1.319429
H      -0.898492   -1.165453   -2.828087
