16

O      -0.026186   -0.060424    0.022104
C       0.027214    1.150213    0.016821
N      -1.052740    2.020048    0.059949
C      -0.691099    3.427417    0.038892
C       0.803994    3.330922   -0.022775
C       1.201690    2.061047   -0.034789
C       2.690115    1.979628   -0.096097
O       3.106353    3.358102   -0.118177
C       1.983647    4.245689   -0.074628
H      -1.998372    1.679337    0.097044
H      -1.111757    3.951105   -0.831558
H      -1.038439    3.958632    0.936680
H       3.131216    1.474896    0.774554
H       3.057938    1.468671   -0.996641
H       1.985770    4.895404   -0.963704
H       2.059016    4.901253    0.806938
