15

N      -0.004501    1.348972    0.082248
C       0.031954    0.001929   -0.163924
O       1.058246   -0.580091   -0.459027
C      -1.286906   -0.719255   -0.073681
C      -2.531486   -0.090516   -0.129283
C      -3.681233   -0.871873   -0.044343
N      -3.668044   -2.199212    0.093225
C      -2.470857   -2.793487    0.135843
C      -1.264556   -2.107993    0.050491
H       0.890287    1.809990    0.139949
H      -0.763072    1.755785    0.602502
H      -2.622515    0.981066   -0.269201
H      -4.661724   -0.404004   -0.092711
H      -2.478268   -3.875427    0.242804
H      -0.312498   -2.623721    0.075458
