14

C      -0.090299    1.497272    0.056403
C       0.055809    0.015105    0.078634
O      -1.152614   -0.784123   -0.043401
C      -0.685185   -1.664181    0.931944
O      -1.270182   -2.552950    1.448433
C       0.655042   -0.977286    1.045952
C       1.226620   -0.806435   -0.380724
C       1.137404   -1.824934   -1.394625
N       1.085119   -2.632417   -2.219725
H       0.872530    1.978752    0.246100
H      -0.453877    1.827566   -0.921498
H      -0.804494    1.820759    0.818433
H       1.271842   -0.872108    1.926581
H       2.173402   -0.271522   -0.376806
