17

O       0.393765    0.940579   -0.692863
C       0.050652   -0.289716   -0.123891
C       0.479666   -0.421866    1.323535
N       1.464569    0.209008    1.795787
O      -0.364552   -1.245920    1.990040
C      -1.486688   -1.592738    1.137761
C      -1.438282   -0.575835    0.009367
C      -2.454208    0.477672   -0.203489
N      -2.361306   -0.693265   -1.106543
H       1.055568    1.325483   -0.097590
H       0.513923   -1.116119   -0.694283
H       1.588545    0.049508    2.795288
H      -1.352726   -2.616461    0.770121
H      -2.395292   -1.545001    1.740482
H      -3.347778    0.505689    0.413937
H      -2.096871    1.436848   -0.563399
H      -1.897088   -0.422625   -1.971331
