16

C       0.069370    1.380238   -0.972627
C      -0.025229    0.116910   -0.147904
C       1.081168   -0.853840   -0.088596
O       0.818486    0.042967    0.994965
C      -1.423786   -0.400253    0.059927
O      -1.600262   -1.496434    0.942707
C      -2.178007   -0.246249    1.325719
C      -1.644932    0.420999    2.493925
N      -1.321036    0.986446    3.447991
H       1.113726    1.680499   -1.080231
H      -0.356350    1.232516   -1.970842
H      -0.473096    2.198848   -0.488094
H       0.864939   -1.899364    0.118762
H       1.993442   -0.654750   -0.648487
H      -2.024943   -0.449578   -0.850471
H      -3.265687   -0.216751    1.275807
