16

O       0.110218    1.496206    0.568184
C       0.096446    0.104987    0.281075
C      -1.245086   -0.444090    0.092785
C      -2.360791   -0.859982   -0.094145
C      -3.689386   -1.401508   -0.277143
N      -4.118497   -1.713886   -1.676134
C      -4.629477   -3.060410   -1.314229
C      -3.943220   -2.910819    0.049176
O      -3.685375   -3.625935    0.962495
H      -0.391531    1.938220   -0.124631
H       0.708856   -0.129756   -0.604171
H       0.580045   -0.380619    1.135944
H      -4.422968   -0.801834    0.286126
H      -4.824721   -1.080333   -2.031369
H      -5.719807   -3.155317   -1.209907
H      -4.265553   -3.873105   -1.951659
