16

C       0.121980    1.231410   -0.289889
N       0.001710   -0.187151    0.001899
C       0.403826   -0.690948    1.096771
C       1.088780    0.010597    2.244713
O       1.469426    1.154229    2.220061
N       0.166021   -2.043361    1.406759
C       0.065479   -3.013968    0.338756
C       1.243995   -3.029354    1.256920
H       1.162388    1.501187   -0.507972
H      -0.480678    1.451884   -1.175048
H      -0.201244    1.872628    0.536508
H       1.222055   -0.632213    3.141183
H      -0.716020   -3.758114    0.458586
H       0.206586   -2.638370   -0.670244
H       2.192302   -2.681682    0.853754
H       1.318541   -3.767693    2.049464
