18

O      -0.146946   -0.005565   -0.223119
C      -0.136998    1.195524   -0.141232
C      -1.186220    2.328930   -0.095015
C       0.030160    3.292614   -0.015247
N       0.896388    2.104638   -0.050070
C       2.321244    1.956390   -0.055713
C       2.970207    0.809309    0.759852
O       3.815328    0.467819   -0.357942
C       3.032296    1.276394   -1.255861
H      -1.797497    2.412273   -0.995035
H      -1.830568    2.309242    0.785402
H       0.153529    3.958548   -0.875829
H       0.111973    3.873397    0.909438
H       2.761143    2.927410    0.181506
H       3.547316    1.087902    1.647946
H       2.265298    0.006448    1.002830
H       2.351034    0.672705   -1.869069
H       3.655500    1.905727   -1.900605
