19

C      -0.383133    1.622576   -0.013411
C       0.007340    0.153479    0.043579
C       1.032446   -0.526584   -0.898343
C       2.346974    0.253580   -1.085009
C       2.971587    0.577544    0.266791
O       2.336503    1.568204    1.085724
C       2.196081    0.189495    1.453005
C       0.892982   -0.533497    1.120057
O       1.244379   -1.546581    0.123021
H       0.474140    2.291204   -0.035432
H      -1.002626    1.802647   -0.899697
H      -0.988735    1.887051    0.860626
H      -0.900369   -0.456469   -0.009109
H       0.676157   -0.954776   -1.839590
H       3.046788   -0.380747   -1.640339
H       2.191318    1.161991   -1.678973
H       4.058473    0.604237    0.314285
H       2.697843   -0.085516    2.378691
H       0.411698   -0.972028    1.997655
