16

O       0.011631    1.466298    0.087458
C      -0.023869    0.063531   -0.043461
C      -1.400677   -0.568871   -0.005506
C      -2.055630   -0.505533   -1.371980
O      -1.692670    0.496888   -2.287292
C      -0.292838    0.341320   -2.550548
C       0.217385   -0.591198   -1.451994
C      -0.992099   -1.516714   -1.159301
H       0.922235    1.736184    0.242060
H       0.625371   -0.418074    0.699883
H      -1.969834   -0.791499    0.890344
H      -3.100523   -0.784069   -1.438115
H      -0.140961   -0.084341   -3.553388
H       0.177056    1.328396   -2.501155
H       1.197632   -1.028732   -1.638896
H      -1.058098   -2.591419   -1.252282
