18

O       0.485213    0.616696   -1.108527
C       0.054459   -0.264185   -0.116983
C       0.093475    0.112329    1.396053
C      -1.258661   -0.638088    1.595492
C      -2.484505    0.287489    1.720479
C      -2.536392    0.418529    0.154822
C      -2.223953    1.734619   -0.379666
N      -1.949201    2.787701   -0.774997
C      -1.430417   -0.695075    0.032570
H       0.028735    1.460766   -1.009708
H       0.634758   -1.180815   -0.268565
H       0.952900   -0.260964    1.956131
H       0.009950    1.189190    1.575570
H      -1.227230   -1.534111    2.213651
H      -3.376333   -0.220477    2.093870
H      -2.346690    1.216317    2.278554
H      -3.491760    0.100633   -0.268286
H      -1.762318   -1.573336   -0.521401
