21

C      -0.039852    1.209981    0.161516
C       0.056773   -0.317593    0.154311
C       0.767607   -0.855725    1.390440
O      -1.233426   -0.930126    0.135139
C      -1.925733   -0.850936   -1.088506
C      -3.188638   -1.720001   -0.964167
O      -4.013308   -1.535762   -2.079194
C      -2.822734   -3.182161   -0.807240
O      -3.254690   -4.020682   -1.563521
H       0.960452    1.652564    0.198207
H      -0.536778    1.591875   -0.734709
H      -0.600902    1.549376    1.038208
H       0.607714   -0.636776   -0.746487
H       1.784632   -0.458237    1.453652
H       0.226038   -0.565514    2.296363
H       0.821110   -1.947140    1.357728
H      -2.246489    0.171919   -1.329489
H      -1.305016   -1.210731   -1.925663
H      -3.697470   -1.415924   -0.032285
H      -4.153659   -2.424189   -2.444740
H      -2.139895   -3.431477    0.025161
