17

N      -0.012486    1.314059   -0.172152
C      -0.095942   -0.065231   -0.070821
C      -1.148377   -0.931244    0.060803
C      -0.540066   -2.227755    0.253423
C       0.798316   -2.049009    0.199043
O       1.086174   -0.716836    0.004363
C      -2.592962   -0.608168    0.039529
C      -3.171879    0.224682   -1.053632
N      -3.474732   -1.212718   -0.985096
H       0.737565    1.626732   -0.776034
H      -0.894679    1.732533   -0.433177
H      -1.058594   -3.163384    0.397519
H       1.652244   -2.700273    0.266912
H      -3.087031   -0.552596    1.008790
H      -4.013851    0.880727   -0.850880
H      -2.503898    0.571325   -1.838495
H      -2.890952   -1.701760   -1.660523
