17

O       0.376212   -0.180556   -0.535581
C       0.171155    0.965796   -0.240693
C       1.232558    2.027023   -0.051052
O       2.577684    1.553006   -0.125808
C       2.863779    2.406317   -1.270722
C       2.917019    1.675727   -2.581469
C       1.802030    1.852954   -3.289429
C       0.790835    2.744734   -2.602522
C       1.443145    3.030414   -1.232739
H      -0.864027    1.354034   -0.077427
H       1.027631    2.528577    0.908252
H       3.733674    3.039230   -1.065089
H       3.767307    1.074186   -2.879599
H       1.608150    1.416353   -4.263370
H       0.625698    3.672446   -3.165102
H      -0.191600    2.263520   -2.525771
H       1.371884    4.073228   -0.927277
