23

C      -0.605350    1.289755   -0.039451
C       0.138921   -0.030416   -0.039099
O       1.341765   -0.003658   -0.850299
C       2.138477   -0.599966    0.204669
C       2.865698   -1.838850   -0.249964
C       2.881852    0.490023    1.016067
C       1.671376    0.574967    1.995991
C       0.924375   -0.533453    1.197965
C       0.350618   -1.699505    1.971259
H       0.030176    2.114309    0.293801
H      -0.950033    1.521143   -1.052482
H      -1.484469    1.236673    0.612548
H      -0.535154   -0.820437   -0.407211
H       3.593465   -1.582073   -1.028503
H       3.407784   -2.304893    0.579357
H       2.170101   -2.572100   -0.669508
H       3.806034    0.145613    1.488895
H       3.094944    1.387151    0.431104
H       1.919649    0.252240    3.010549
H       1.170763    1.543071    2.068249
H      -0.520892   -1.387113    2.560474
H       0.026152   -2.506305    1.304737
H       1.083284   -2.115948    2.671365
