20

C      -0.034258    1.637667    0.026512
C       0.013730    0.126499   -0.059721
C       0.697812   -0.610522   -1.234140
C       2.194250   -0.226472   -1.159582
C       2.338733   -0.211950    0.370730
N       0.979144   -0.599522    0.860982
C       1.076581   -1.718136   -0.196565
C       2.597783   -1.478410   -0.390266
C       3.776956   -2.390639   -0.473717
H       0.945469    2.079587   -0.178811
H      -0.747779    2.043912   -0.698425
H      -0.349450    1.955851    1.025855
H      -0.977393   -0.304507    0.127929
H       0.236711   -0.787778   -2.205887
H       2.787008    0.390927   -1.821192
H       3.010425    0.434543    0.921114
H       0.545919   -2.652402   -0.019413
H       3.707682   -3.060871   -1.338286
H       4.704319   -1.816216   -0.574439
H       3.866145   -3.010402    0.425896
