20

C      -0.027508    1.462612   -0.022175
C      -0.573010    0.202298    0.622002
O      -1.112197   -0.623792   -0.416575
C      -1.563208   -1.832487   -0.034153
N      -2.091740   -2.601455   -0.879218
C      -2.584262   -3.909765   -0.484897
C      -2.602005   -4.293755    0.996241
C      -3.967504   -4.069697   -1.125059
O      -4.860195   -4.730635   -0.662902
H       0.389832    2.123826    0.742698
H       0.759958    1.217895   -0.739904
H      -0.820531    1.998102   -0.550783
H       0.220567   -0.340891    1.152983
H      -1.361527    0.443398    1.347672
H      -1.415378   -2.051033    1.030899
H      -1.966134   -4.647948   -1.027804
H      -3.090190   -5.263982    1.105863
H      -1.591108   -4.361867    1.407852
H      -3.174519   -3.570679    1.586082
H      -4.070743   -3.518771   -2.083942
