16

O       0.135707    0.076198    0.498929
C       0.066226    1.233097    0.147378
N       1.092760    1.912057   -0.477565
C       2.554560    1.682936   -0.190308
C       2.836107    2.948318   -1.048995
C       1.621968    3.277033   -0.118698
C       2.438139    2.615412    1.053111
C       0.783529    4.507432   -0.073417
O      -0.415228    4.511307   -0.194850
H      -0.854186    1.841241    0.202700
H       2.998424    0.693672   -0.261678
H       3.764816    3.481392   -0.844603
H       2.602033    2.873753   -2.110646
H       1.845681    2.237199    1.886840
H       3.343515    3.132123    1.380072
H       1.360252    5.443666    0.096878
