15

O      -0.129284    0.032855    0.028176
C      -0.056880    1.226124   -0.031282
N      -1.010892    2.226929   -0.115612
C      -0.067758    3.339591   -0.041937
C       0.307466    3.797642    1.395369
C       1.494657    2.770711    1.406121
C       1.546670    1.802677    2.489713
N       1.579137    1.058023    3.373283
C       1.080081    2.278009   -0.025255
H      -1.998069    2.189976    0.100697
H      -0.180656    4.098051   -0.816181
H       0.649843    4.831409    1.465636
H      -0.465941    3.623803    2.144286
H       2.455406    3.288950    1.361978
H       1.863556    2.189251   -0.773798
