17

C       0.045327   -1.189670    0.042340
C      -0.023305    0.013573    0.028681
C      -0.044693    1.427632    0.022804
C      -1.122761    2.215189   -0.121803
C      -0.754080    3.649469   -0.100346
C      -1.465810    4.680240   -0.877018
O      -1.646839    4.579001    0.534808
C       0.733196    3.708469    0.262683
C       1.233736    2.246853    0.155692
H       0.088798   -2.250534    0.053292
H      -2.142568    1.875357   -0.250071
H      -0.917242    5.557636   -1.220245
H      -2.330401    4.409668   -1.483224
H       1.293342    4.392174   -0.379194
H       0.818936    4.077358    1.288876
H       1.823149    1.931395    1.022169
H       1.869258    2.093411   -0.724276
