17

C       0.430007    1.945979    0.511615
N       0.037857    0.556300    0.327642
C       1.020968   -0.359425   -0.228546
C       0.560412   -0.505719    1.184115
C       1.550920   -0.299462    2.329262
C       0.856525   -0.192676    3.670654
O       0.891443   -1.036393    4.529606
C       0.079287    1.047897    3.899488
N      -0.512332    2.024300    4.084354
H       1.495560    2.094903    0.751947
H       0.227584    2.481536   -0.420776
H      -0.172533    2.395794    1.304635
H       0.672985   -1.041640   -0.999779
H       2.036366    0.011527   -0.373718
H      -0.177350   -1.278020    1.397827
H       2.219444   -1.162775    2.397646
H       2.156149    0.597581    2.163556
