19

O      -0.081526   -0.042962    0.077537
C       0.006015    1.150844   -0.003546
C       1.293576    1.951842    0.026995
C       1.307784    2.905639    1.235235
C       2.550064    3.807153    1.161883
C       3.797987    3.040851    0.755378
C       4.276287    1.809683    1.496374
C       3.650277    1.675064    0.133028
O       2.386699    1.068394    0.058630
H      -0.895475    1.801817   -0.102970
H       1.299274    2.564986   -0.896387
H       0.399232    3.517119    1.253761
H       1.310546    2.296223    2.146200
H       2.366507    4.585275    0.409845
H       2.702809    4.324384    2.116141
H       4.583196    3.662773    0.335313
H       5.344514    1.656839    1.603810
H       3.680179    1.443914    2.325480
H       4.279715    1.406552   -0.711498
