21

C      -0.018844    1.449043   -0.322974
O       1.252640    1.720288    0.301214
C       1.385956    0.347495    0.741085
C       1.451509    0.221970    2.260394
C       1.380301   -1.216829    2.725168
C       0.483291   -2.141590    2.374204
C      -0.712495   -2.029871    1.461025
C      -1.050414   -0.631440    0.922987
C       0.052983   -0.047320    0.051724
H      -0.836458    2.011208    0.149399
H      -0.006635    1.680539   -1.394974
H       2.274279   -0.120082    0.296983
H       2.386518    0.677020    2.603535
H       0.648907    0.823927    2.702916
H       2.161533   -1.525880    3.415928
H       0.607605   -3.135339    2.803652
H      -0.567648   -2.717553    0.612849
H      -1.586226   -2.429341    1.995060
H      -1.975052   -0.693829    0.335514
H      -1.269711    0.042719    1.759022
H       0.214051   -0.692294   -0.817330
