19

O      -0.080775    1.477986   -0.006143
C       0.000733    0.068412    0.138653
C      -1.376839   -0.512225   -0.161845
C      -1.396015   -2.028870   -0.096877
C      -1.486904   -2.738521    1.286561
O      -2.888181   -2.288522    1.419977
C      -2.764749   -2.757823    0.019824
C      -2.058260   -4.010953    0.579804
O      -1.290715   -4.766441   -0.312720
H       0.782147    1.851678    0.194342
H       0.746514   -0.359964   -0.551953
H       0.308248   -0.209560    1.160276
H      -2.103808   -0.100628    0.543219
H      -1.672472   -0.183728   -1.165892
H      -0.697747   -2.497001   -0.795678
H      -0.848395   -2.650823    2.167144
H      -3.648654   -2.685940   -0.614971
H      -2.697582   -4.612933    1.233745
H      -0.856561   -5.469494    0.179955
