21

C      -0.220006    1.597353   -0.010984
C       0.045059    0.098771   -0.003558
C       1.120681   -0.566386   -0.920273
C       2.408671    0.175511   -0.522386
C       2.338722   -0.088137    1.017389
C       3.090055   -1.400945    1.259050
O       2.375504   -2.342940    0.438508
C       1.133800   -1.733348    0.141287
C       0.857535   -0.574855    1.126968
H       0.681901    2.186507    0.176314
H      -0.635574    1.919664   -0.972400
H      -0.947403    1.860354    0.765007
H      -0.905800   -0.434621   -0.120668
H       0.937828   -0.740131   -1.981345
H       3.303289   -0.266032   -0.969584
H       2.385669    1.234322   -0.788959
H       2.641458    0.737366    1.662113
H       4.135614   -1.367560    0.934189
H       3.059661   -1.719896    2.311996
H       0.362826   -2.492616    0.009870
H       0.460697   -0.735945    2.130054
