15

C      -0.023952    1.506109    0.092748
C       0.031681    0.024030   -0.018517
C       0.047069   -0.821982   -1.102887
N       0.085089   -2.155379   -0.709115
C       0.106351   -2.114031    0.596489
N       0.233442   -3.201863    1.448590
N       0.071340   -0.826164    1.070605
C       0.014021   -0.422101   -2.463114
N      -0.014759   -0.059215   -3.563196
H       0.847138    1.909787    0.622683
H      -0.041968    1.944956   -0.906924
H      -0.921440    1.842168    0.625745
H       0.194200   -4.062729    0.917367
H      -0.445616   -3.222681    2.199864
H       0.158919   -0.545307    2.033430
