15

O      -0.157628    1.336530    0.216499
N       0.000783   -0.059370    0.242815
C      -1.099386   -0.651453    0.005949
C      -1.188259   -2.164711   -0.021917
C      -2.645093   -2.457028    0.381758
C      -3.438278   -1.209200   -0.028369
O      -4.628736   -1.152175   -0.184381
C      -2.458717   -0.041339   -0.208159
H       0.724528    1.646900    0.447408
H      -1.005581   -2.521486   -1.043997
H      -0.439072   -2.627693    0.622123
H      -3.077026   -3.356912   -0.059684
H      -2.737049   -2.551827    1.471816
H      -2.667045    0.768201    0.499029
H      -2.574325    0.394139   -1.208241
