15

N      -0.021290    1.359137    0.009941
C       1.263239    1.854008    0.000168
C       2.161050    0.819695   -0.014160
C       1.397626   -0.392153   -0.013403
C       0.029298   -0.017686    0.001934
C      -0.975192   -0.984538    0.006407
N      -0.686125   -2.279470   -0.003492
C       0.613994   -2.645027   -0.018125
C       1.682758   -1.764777   -0.023686
H      -0.857899    1.915485    0.021147
H       1.433956    2.919890    0.004324
H       3.235624    0.913007   -0.024070
H      -2.028753   -0.709138    0.018142
H       0.795213   -3.716557   -0.025742
H       2.702763   -2.133476   -0.035603
