21

C      -0.076083    1.418444   -0.047191
C       0.006013   -0.068208    0.007947
O      -0.517606   -0.834921   -1.088219
C      -0.395470   -1.997598   -0.225253
C      -0.332642   -1.080993    1.048743
C       1.132981   -0.902714    0.653245
C       1.149627   -2.236737   -0.113690
C       1.463642   -3.425586    0.795278
C       1.932559   -2.298711   -1.421210
H       0.524174    1.809975   -0.875476
H      -1.110650    1.747262   -0.186732
H       0.303066    1.853012    0.882567
H      -1.099310   -2.794896   -0.460862
H      -0.857541   -1.041753    1.992918
H       1.929903   -0.449943    1.232354
H       0.883170   -3.391256    1.722659
H       1.239528   -4.370824    0.287245
H       2.525029   -3.442801    1.066003
H       3.008141   -2.204046   -1.231856
H       1.772494   -3.255612   -1.932268
H       1.625113   -1.495485   -2.093070
