18

C      -0.069347    1.438000   -0.449502
C      -0.244794    0.069167    0.134486
N      -0.573878   -0.153860    1.325652
O       0.023955   -0.873804   -0.884010
C      -0.040565   -2.221976   -0.704859
O      -0.329304   -2.774516    0.326424
C       0.304463   -2.925907   -1.994680
C       0.255696   -4.442144   -1.863809
O       0.596264   -4.971058   -3.134755
H       0.949974    1.563103   -0.828290
H      -0.749188    1.581725   -1.295248
H      -0.272071    2.183542    0.318092
H      -0.638022   -1.151542    1.519082
H      -0.385440   -2.588333   -2.776340
H       1.300340   -2.602777   -2.318121
H       0.956963   -4.768481   -1.082628
H      -0.749524   -4.753623   -1.546029
H       0.571615   -5.930406   -3.076156
