16

C      -0.114621    1.406320   -0.174743
N      -0.091946    0.013339    0.244707
C      -1.211704   -0.764435    0.138160
N      -1.253005   -2.063055    0.052534
C      -2.614906   -2.354589    0.064193
N      -3.056268   -3.677449    0.048302
C      -3.325554   -1.207996    0.148256
O      -4.636429   -0.901995    0.074283
O      -2.404700   -0.146496    0.188654
H       0.834426    1.869732    0.102982
H      -0.268746    1.535865   -1.255829
H      -0.916740    1.930655    0.348413
H       0.742419   -0.507377    0.019283
H      -2.391115   -4.273767   -0.427553
H      -3.975498   -3.774866   -0.363383
H      -4.982499   -0.717108    0.957436
