19

C       0.054536    1.532427   -0.028441
C       0.012125   -0.004596    0.057816
C       0.794906   -0.508125    1.284789
C      -1.398915   -0.529072    0.038337
C      -1.982355   -1.352686   -0.907575
O      -1.530485   -1.925135   -2.046281
N      -3.260935   -1.573729   -0.531684
N      -3.577694   -0.939439    0.627023
C      -2.456554   -0.315503    0.961916
H       1.087358    1.896018   -0.055957
H      -0.463251    1.893285   -0.921744
H      -0.435152    1.981033    0.842523
H       0.528545   -0.392259   -0.835807
H       1.830833   -0.153081    1.262746
H       0.336028   -0.144596    2.210480
H       0.804545   -1.601029    1.327085
H      -0.609969   -1.670669   -2.170680
H      -3.946816   -2.132046   -1.009949
H      -2.433594    0.277455    1.865659
