23

C      -0.162785    1.339091   -0.251607
O      -0.032026   -0.050641   -0.084112
C      -1.273729   -0.717960   -0.004877
C      -1.031121   -2.226452    0.176671
C      -0.295746   -2.473688    1.504166
C      -2.386612   -2.995482    0.094093
C      -2.461794   -3.618745   -1.324975
C      -1.037701   -3.522906   -1.816826
C      -0.274954   -2.781388   -1.018044
H       0.844101    1.761766   -0.297201
H      -0.696274    1.591021   -1.182174
H      -0.705095    1.803263    0.587893
H      -1.862387   -0.327342    0.844869
H      -1.860478   -0.539993   -0.922182
H      -0.913743   -2.162974    2.354918
H      -0.063076   -3.536205    1.625525
H       0.638006   -1.906850    1.542811
H      -2.391766   -3.788530    0.847825
H      -3.241252   -2.347380    0.313457
H      -2.835806   -4.649134   -1.306225
H      -3.141976   -3.063990   -1.986186
H      -0.707233   -3.989344   -2.739116
H       0.769049   -2.542293   -1.183847
