16

C       0.110067    1.517494    0.147608
C      -0.108892    0.022314   -0.135414
C       0.642643   -0.446961   -1.336817
N       0.051560   -0.915285   -2.416046
N       1.106336   -1.205717   -3.236104
C       0.973717   -1.742355   -4.527298
O      -0.064502   -2.005225   -5.056432
C       2.273649   -0.889951   -2.593009
N       2.026707   -0.413160   -1.405945
H       1.173289    1.733476    0.281465
H      -0.261040    2.130835   -0.678995
H      -0.419789    1.814949    1.056772
H       0.224083   -0.562881    0.729943
H      -1.169087   -0.193362   -0.290500
H       1.969635   -1.886604   -4.984873
H       3.244716   -1.034577   -3.044184
