17

C      -0.456469    1.413940    0.007342
C       0.209337    0.058960   -0.060232
O       1.520394    0.092794   -0.664798
C       2.042756   -0.826943    0.306340
C       0.804726   -0.620210    1.227109
C       1.074945    0.310449    2.414195
C       0.117418   -1.831416    1.655403
N      -0.433827   -2.791363    1.989662
H       0.153010    2.142876    0.545940
H      -0.613840    1.787361   -1.009257
H      -1.434095    1.335645    0.494030
H      -0.437251   -0.650801   -0.595418
H       2.137771   -1.845124   -0.090436
H       3.002286   -0.498571    0.718863
H       1.635220    1.187978    2.082627
H       0.143517    0.643487    2.879533
H       1.667376   -0.208464    3.172946
