18

C      -0.038227    1.661029    0.391143
C      -0.046742    0.163133    0.061696
C       0.847385   -0.622278    1.034485
O       2.174973   -0.146541    0.889010
C      -1.430461   -0.424265    0.045962
C      -2.598705    0.075341    0.533719
O      -3.614085   -0.777757    0.326714
N      -3.128329   -1.904008   -0.326948
C      -1.848052   -1.683079   -0.484543
H       0.986480    2.036242    0.389920
H      -0.622333    2.229237   -0.338542
H      -0.461237    1.846261    1.385518
H       0.395617    0.028555   -0.934534
H       0.474233   -0.479238    2.061588
H       0.782940   -1.698085    0.808804
H       2.728916   -0.587398    1.539316
H      -2.859557    0.997153    1.028872
H      -1.246968   -2.430996   -0.983913
