18

C       0.034945    1.539594    0.115250
C       0.050850    0.030154   -0.156049
C      -1.335226   -0.594729   -0.008397
C      -1.540539   -2.120442   -0.105686
C      -0.879507   -2.815761    1.030346
C      -2.232592   -2.156103    1.280594
C      -2.035160   -0.672628    1.382008
O      -2.405473    0.166179    2.155960
H       1.041022    1.963439    0.043136
H      -0.600818    2.062240   -0.608017
H      -0.359440    1.752253    1.112789
H       0.424217   -0.165312   -1.169666
H       0.755439   -0.457959    0.527493
H      -2.042537   -0.078139   -0.671872
H      -1.868916   -2.642351   -0.994971
H      -0.921353   -3.900188    1.020599
H       0.018249   -2.416064    1.491451
H      -3.080693   -2.728366    1.634687
