19

C      -0.158851    1.448991   -0.027899
N       0.043450    0.007036    0.060551
C       1.367389   -0.509505   -0.224471
C       0.819706   -0.551766    1.178376
C       1.432150    0.363665    2.121434
N       1.893799    1.084273    2.900297
C       0.293310   -1.832320    1.766201
C       1.016640   -2.548960    2.878810
C      -0.309072   -1.883804    3.147835
H       0.712269    2.041889    0.287587
H      -0.392464    1.696961   -1.067247
H      -1.012763    1.730016    0.594605
H       1.412904   -1.435456   -0.792017
H       2.170257    0.198807   -0.423269
H      -0.178714   -2.446988    1.007305
H       1.061279   -3.631256    2.836788
H       1.902335   -2.079594    3.293213
H      -0.299270   -0.975546    3.740540
H      -1.186241   -2.504177    3.291267
