15

C       0.034142    1.581058    0.105194
C       1.547469    1.578356   -0.110768
C       2.223238    0.644803    0.851309
O       1.758430    0.386288    2.169757
C       0.636671   -0.374500    2.268826
N      -0.214445   -0.626939    1.366941
C       0.046843    0.009151    0.081343
C       1.536756    0.048141   -0.319029
H      -0.340026    2.044976    1.021707
H      -0.504336    1.992938   -0.751518
H       2.118614    2.333322   -0.638322
H       3.306542    0.662294    0.852860
H       0.532134   -0.762981    3.279390
H      -0.614033   -0.416906   -0.672338
H       2.021161   -0.584664   -1.050954
