20

C      -0.074004    1.487404   -0.095144
C       0.113834   -0.013734   -0.076035
C       1.518593   -0.614154   -0.026169
C       0.611100   -0.702292    1.149695
O       0.891174    0.041146    2.365047
C       0.375471   -0.983775    3.137657
N       0.225480   -1.073959    4.378753
C       0.066192   -1.885229    1.954179
C      -1.386715   -2.303728    1.767662
H       0.637796    1.978011    0.574154
H       0.070299    1.888423   -1.103638
H      -1.080943    1.762103    0.236252
H      -0.613620   -0.576216   -0.657518
H       1.730383   -1.516362   -0.591159
H       2.348985    0.081202    0.047937
H       0.551138   -0.231656    4.856219
H       0.729344   -2.755584    1.927554
H      -2.052555   -1.436100    1.781050
H      -1.525118   -2.828711    0.817035
H      -1.689178   -2.975812    2.575256
