16

C      -0.487375    1.370860   -0.110110
C      -0.052787   -0.058367   -0.105760
C       0.293985   -0.917065   -1.139231
C       0.329605   -0.613089   -2.601252
O      -0.928663   -0.064070   -3.000794
C       0.615619   -2.133302   -0.496392
N       0.489040   -2.057165    0.823862
N       0.081818   -0.787545    1.030671
H       0.350056    2.053729    0.079433
H      -0.913891    1.613136   -1.084623
H      -1.248058    1.561945    0.654394
H       1.139852    0.097740   -2.832038
H       0.550305   -1.538446   -3.154841
H      -0.848853    0.211197   -3.919756
H       0.932749   -3.060762   -0.952721
H      -0.111477   -0.486887    1.971580
