16

C       0.008191    1.513578   -0.176609
N      -0.033976    0.062505   -0.062127
C       0.588503   -0.641849   -0.880665
O       1.362461   -0.276051   -2.002213
C       1.476522   -1.657700   -2.386291
C       2.207599   -2.433146   -1.376473
C       0.723063   -2.108658   -1.115417
C      -0.297580   -3.159325   -0.961284
O      -0.126499   -4.313364   -1.279685
H       0.556942    1.876562   -1.052778
H      -1.017127    1.895496   -0.214780
H       0.470481    1.926826    0.726205
H       1.281051   -1.914379   -3.418449
H       2.351559   -3.486938   -1.594260
H       2.964509   -1.949776   -0.767923
H      -1.258769   -2.804110   -0.537117
