18

C       0.232753    0.662828   -0.506519
C      -0.087749   -0.567527    0.303188
O       0.775793   -1.321273    0.706444
C      -1.577725   -0.872131    0.525560
O      -2.015620   -1.631703   -0.594026
C      -2.351668   -2.992941   -0.334362
C      -1.166330   -3.913895   -0.041571
O      -0.603851   -3.722033    1.238959
H       1.303125    0.729412   -0.702145
H      -0.326183    0.627197   -1.448593
H      -0.106281    1.558311    0.027872
H      -1.700314   -1.418968    1.464504
H      -2.161452    0.056816    0.559418
H      -3.065011   -3.051522    0.500858
H      -2.856742   -3.332545   -1.245717
H      -1.536773   -4.946880   -0.082540
H      -0.418189   -3.802205   -0.840451
H       0.026065   -2.985240    1.183260
