20

C       0.093188    1.487809    0.034108
C       0.009728   -0.007567    0.009927
C      -0.100464   -0.790691   -1.073542
C      -0.049223   -2.241407   -0.739245
C       1.249250   -2.716895   -0.110543
C       0.104525   -2.289532    0.771124
C       0.077294   -0.857232    1.246601
C       0.710908   -0.395470    2.512370
N      -0.748145   -0.564470    2.439787
H       1.081844    1.833665    0.361044
H      -0.093611    1.905324   -0.958572
H      -0.638742    1.931342    0.721448
H      -0.169614   -0.423900   -2.092097
H      -0.657322   -2.952397   -1.287359
H       1.464692   -3.779984   -0.148758
H       2.118418   -2.072393   -0.195526
H      -0.404051   -3.027768    1.378445
H       1.225037   -1.115057    3.144111
H       1.121767    0.610553    2.549668
H      -1.201933    0.341209    2.341473
