13

O      -0.045528    1.453785    0.061376
C       0.030408    0.039815   -0.003519
C      -1.363148   -0.492939   -0.005221
C      -2.541146    0.177530    0.045418
O      -3.583395   -0.669536    0.023285
N      -3.098414   -1.977171   -0.045444
C      -1.794672   -1.849701   -0.061062
O      -0.968648   -2.908244   -0.123884
H       0.850068    1.802892    0.062416
H       0.557753   -0.296378   -0.911253
H       0.585977   -0.375713    0.853107
H      -2.776564    1.227927    0.098002
H      -1.514711   -3.705479   -0.151996
