17

C      -0.122015    1.434969   -0.135048
O      -0.250435    0.033521   -0.183768
C       0.725117   -0.570174   -1.006850
C       0.543305   -2.054819   -0.955387
N       0.647270   -2.757030   -2.058257
O       0.468853   -4.097347   -1.649191
C       0.257066   -4.122216   -0.326487
N       0.113963   -5.368313    0.234875
C       0.290944   -2.856406    0.188257
H       0.857288    1.742118    0.265929
H      -0.242524    1.891320   -1.130006
H      -0.908199    1.810977    0.523773
H       0.646087   -0.228372   -2.049750
H       1.736824   -0.307063   -0.650830
H      -0.196676   -6.078225   -0.413489
H      -0.399153   -5.382190    1.103231
H       0.147436   -2.537946    1.205569
