10

N      -0.176927   -1.159929   -0.008243
C      -0.076386   -0.009575    0.018104
C       0.015790    1.430699    0.009160
N       0.531386    2.075088    1.220818
C       1.340484    2.147328    0.000436
C       2.596513    1.436437    0.000556
N       3.613946    0.890718   -0.033192
H      -0.781465    1.918042   -0.546421
H       0.054935    2.957869    1.386907
H       1.363134    3.078189   -0.560609
