15

N       0.005442    1.280991    0.007746
C       0.043852   -0.073523    0.000713
O       1.078940   -0.715525   -0.014863
C      -1.324850   -0.758129    0.014139
N      -1.113530   -2.180978    0.007061
C      -2.144874   -3.060142    0.006426
O      -3.317863   -2.744454    0.015140
C      -1.670568   -4.522779   -0.006536
O      -2.430741   -5.447977   -0.008735
H       0.874864    1.788385   -0.000662
H      -0.857651    1.795985    0.020962
H      -1.895102   -0.449290    0.900377
H      -1.915047   -0.443941   -0.857044
H      -0.140599   -2.462210   -0.005630
H      -0.564482   -4.667026   -0.013172
