18

C       0.151209    1.524815    0.346016
C       0.007567    0.045428    0.048588
C       0.860285   -0.673748   -1.096558
C       2.421023   -0.781249   -1.032050
C       2.942147   -1.145990    0.367876
C       1.966914   -0.660386    1.359608
C       0.741098   -1.007123    0.902687
C       0.913679   -1.974359   -0.278340
N       2.385558   -2.191315   -0.519018
H       1.202599    1.813775    0.434898
H      -0.301859    2.121957   -0.452433
H      -0.352730    1.789547    1.281602
H      -1.041579   -0.201152   -0.160917
H       0.467972   -0.646971   -2.115559
H       3.100063   -0.490833   -1.825989
H       4.017494   -1.183935    0.512199
H       2.172452    0.235611    1.935360
H       0.258058   -2.832418   -0.408542
