13

C       0.054782    1.587000   -0.030815
C       0.025012    0.068363    0.044427
N       0.953172   -0.656390   -0.874468
C       1.486326   -1.522213    0.210710
C       0.753807   -0.618663    1.215620
O       0.769192   -0.472910    2.400298
H       1.084024    1.952413    0.016968
H      -0.389974    1.939061   -0.966705
H      -0.510506    2.015677    0.802587
H      -1.014236   -0.295118   -0.002503
H       0.485539   -1.166446   -1.614298
H       1.105965   -2.553423    0.235666
H       2.579025   -1.550691    0.282194
