19

O       0.107166    1.544844   -0.484142
C      -0.055136    0.230616   -0.017123
C       0.428404    0.079854    1.461941
C      -0.452150   -1.008500    2.107560
C      -1.756612   -0.976330    1.319698
C      -2.386499    0.371560    1.085609
C      -1.512247   -0.241383    0.020429
C       0.734172   -0.712970   -0.906923
O       1.365299   -0.325960   -1.861096
H       0.666057    1.478685   -1.274396
H       1.497660   -0.140629    1.529750
H       0.280403    1.056012    1.930101
H       0.012425   -1.995774    2.000848
H      -0.593789   -0.838858    3.180553
H      -2.402069   -1.846950    1.353754
H      -3.450777    0.393711    0.879909
H      -2.025444    1.237036    1.630545
H      -1.972598   -0.549871   -0.912027
H       0.700700   -1.786736   -0.630267
