19

C       0.270458    1.396511    0.527079
O       1.466250    1.480750   -0.278422
C       1.345657    0.108976   -0.706543
C       2.352075   -0.844482   -0.086008
N       2.835460   -0.529892    1.263380
C       1.952896   -1.689493    1.087362
C       0.554443   -1.538100    1.683113
N      -0.482038   -1.066762    0.753651
C      -0.092998    0.031348   -0.098743
H       0.506251    1.360179    1.596978
H      -0.418892    2.226005    0.334588
H       1.400330    0.030141   -1.799196
H       3.067706   -1.281173   -0.779191
H       3.805514   -0.815664    1.360150
H       2.397373   -2.680711    1.149482
H       0.214193   -2.495889    2.087511
H       0.616467   -0.839845    2.524583
H      -0.792972   -1.839613    0.175637
H      -0.853298    0.139736   -0.875189
