18

C      -0.042487    1.571132    0.131540
N       1.492199    1.525981   -0.044959
C       1.201113    0.353110   -0.950466
C       1.195372   -1.202538   -1.234864
C       1.769076   -2.126695   -0.169397
C       1.239496   -1.703718    1.175645
C       0.423635   -0.654468    1.219001
C       0.056422    0.022428   -0.081493
O      -0.287055   -1.080901   -1.047181
H      -0.365768    1.935409    1.111297
H      -0.551246    2.105857   -0.677555
H       1.850800    2.333885   -0.551297
H       0.807441    0.750319   -1.896161
H       1.429390   -1.513789   -2.255882
H       1.486044   -3.164669   -0.390411
H       2.866665   -2.093347   -0.197015
H       1.531940   -2.257483    2.062350
H       0.015822   -0.262877    2.145443
