15

C      -0.033079    1.385696   -0.113186
N       0.093200   -0.051492    0.021653
C       0.564588   -0.636662    1.157885
O       0.920551   -0.029797    2.155257
C       0.625523   -2.111506    1.118955
C       1.027934   -3.031501    2.033087
N       0.887143   -4.303599    1.501547
C       0.415625   -4.099563    0.314347
O       0.225052   -2.799985   -0.003823
H       0.584783    1.763733   -0.935177
H      -1.073458    1.678209   -0.293073
H       0.306108    1.831990    0.822157
H      -0.173688   -0.647066   -0.745050
H       1.404872   -2.856866    3.027010
H       0.159969   -4.826659   -0.440616
