16

O       0.102759    1.380994   -0.182848
C       0.004696    0.002075   -0.361145
C      -1.317860   -0.529439    0.158228
O      -2.126684    0.230409    0.651175
C      -1.607305   -1.999242    0.053076
C      -2.476435   -2.593180    1.176898
C      -3.085387   -2.378043   -0.154286
C      -0.606079   -2.842130   -0.541209
N       0.204187   -3.514656   -1.020618
H      -0.726947    1.650679    0.240482
H       0.093638   -0.278297   -1.424080
H       0.817445   -0.534083    0.156791
H      -2.228756   -3.600833    1.486979
H      -2.718393   -1.891578    1.966091
H      -3.745898   -1.528629   -0.280057
H      -3.271614   -3.232423   -0.793200
