19

C      -0.045064    1.655500    0.083557
C       0.028556    0.137451    0.018915
C       1.079153   -0.570850   -0.891474
N       1.613902   -1.389123    0.254158
C       2.141114   -0.410604    1.220124
C       0.681573   -0.618670    1.174375
O      -1.289142   -0.416552   -0.127911
C      -1.912944   -0.251492   -1.310518
N      -3.113877   -0.618005   -1.444000
H       0.934489    2.087726    0.301977
H      -0.391793    2.077690   -0.865368
H      -0.744548    1.960552    0.867622
H       0.627399   -1.225008   -1.638394
H       1.831114    0.066843   -1.368846
H       2.679835   -0.874569    2.040497
H       2.585955    0.512724    0.854635
H       0.115702   -1.103762    1.962081
H      -1.284174    0.197032   -2.090624
H      -3.425105   -0.443440   -2.397332
