17

N       0.101803   -1.165574    0.109115
C       0.047988   -0.011469    0.067687
C      -0.009315    1.451025    0.029621
C      -0.705122    2.082167    1.250685
C      -0.146040    1.801451    2.622151
C       0.295048    3.031299    1.868277
N       1.524397    3.074273    1.076515
C       2.367599    1.871103    1.051890
C       1.384034    2.114851   -0.030598
H      -0.563875    1.734906   -0.870760
H      -1.755249    2.326499    1.145711
H      -0.815076    1.964959    3.460213
H       0.521301    0.960177    2.763304
H      -0.004102    4.003777    2.241245
H       3.420054    2.065952    0.866700
H       2.184749    1.065759    1.754734
H       1.721206    2.436372   -1.011826
