20

C       0.291777    1.593542    0.014177
C       0.200108    0.085601    0.083230
C       1.351618   -0.860493   -0.167357
N       2.589274   -0.343040    0.397352
C       2.043914   -0.260261    1.760847
C       0.698313   -0.788901    1.217172
C      -0.151953   -1.790806    1.941723
C       3.586194    0.388882   -0.159490
O       4.387668    1.052322    0.465878
H       1.257289    1.966650    0.364557
H       0.158861    1.941429   -1.015768
H      -0.487458    2.059945    0.626337
H      -0.725732   -0.316684   -0.327322
H       1.358128   -1.653485   -0.906651
H       2.535206   -0.961237    2.443387
H       2.066343    0.743025    2.197067
H      -0.673599   -1.328395    2.788336
H      -0.913814   -2.214627    1.279965
H       0.450263   -2.617704    2.334485
H       3.608830    0.277257   -1.263693
