18

C       0.072066    1.516419   -0.164862
N       0.032644    0.062991   -0.033980
C      -1.101343   -0.498318    0.757963
C      -0.269916   -1.749189    1.173193
C      -0.638823   -1.602860    2.660324
C      -0.524925   -0.144551    2.178979
C       0.680089   -0.497623    1.202769
C       2.082897   -0.439135    1.474821
C       3.261145   -0.376146    1.710722
H       1.077612    1.818273   -0.473317
H      -0.626795    1.820386   -0.950893
H      -0.184594    2.066296    0.755783
H      -2.138194   -0.464042    0.422652
H      -0.103058   -2.637237    0.565086
H      -1.637389   -1.942490    2.949366
H       0.107642   -1.938275    3.385038
H      -0.653529    0.772351    2.752849
H       4.302264   -0.326069    1.914219
