19

C      -0.113905    1.533039    0.023799
C       0.014547    0.037931   -0.046429
C       0.035244   -0.647382   -1.189662
C       0.078737   -2.150193   -1.244696
C      -0.337230   -2.717930    0.109845
O       0.380458   -2.086523    1.157794
C       0.070548   -0.706255    1.288039
C       1.059370   -0.124269    2.199658
C       1.852710    0.371129    2.952987
H       0.753916    1.986294    0.514338
H      -0.215513    1.962906   -0.975938
H      -0.993844    1.828145    0.610538
H      -0.003677   -0.106678   -2.132844
H      -0.593397   -2.522821   -2.028071
H       1.086073   -2.500644   -1.507718
H      -1.422177   -2.584956    0.254460
H      -0.111345   -3.784269    0.193846
H      -0.924433   -0.601835    1.765616
H       2.559822    0.799621    3.619586
