14

C       0.090369   -3.740717    0.029663
C       0.069247   -2.533648    0.013654
C       0.041693   -1.173445   -0.004128
C       0.022971    0.036131   -0.016912
C      -0.036766    1.490931   -0.019217
C      -0.626025    2.088786    1.302387
O       0.417689    2.965820    1.781657
C       1.424927    2.859470    0.887051
N       1.313716    2.106354   -0.125654
H       0.113062   -4.802173    0.042975
H      -0.625427    1.813766   -0.886753
H      -1.526777    2.683089    1.135334
H      -0.819583    1.329544    2.062194
H       2.294026    3.464793    1.119873
