19

C      -0.205728    1.538734    0.034888
C      -0.000213    0.030967    0.001612
O      -1.293799   -0.586019    0.110257
C      -1.084271   -1.799528    0.780459
O      -0.080784   -1.564431    1.746920
C       0.797487   -0.580669    1.206480
C       2.094518   -1.183391    0.616222
C       1.878962   -1.117333   -0.876107
C       0.768532   -0.461266   -1.205394
H       0.756170    2.059404    0.011498
H      -0.790915    1.863020   -0.830880
H      -0.746032    1.825982    0.941344
H      -2.008548   -2.092574    1.287035
H      -0.768353   -2.591828    0.079290
H       0.999539    0.144452    1.999265
H       2.978817   -0.607118    0.918326
H       2.244505   -2.203228    0.986527
H       2.580879   -1.548138   -1.582854
H       0.410209   -0.277886   -2.212230
