19

C       0.186028    1.361704   -0.071836
C       0.099525   -0.153497   -0.054852
O       0.453843   -0.836477    0.879919
N      -0.506847   -0.700570   -1.184389
C      -0.133540   -0.531844   -2.572014
C      -0.091527   -1.882804   -1.900848
C       1.218510   -2.541471   -1.612053
C       1.244541   -3.880097   -0.979843
N       1.616815   -3.722645   -2.397542
H       0.987660    1.686150   -0.744919
H      -0.745429    1.805385   -0.433402
H       0.408142    1.716327    0.934464
H      -0.935236   -0.283336   -3.263211
H       0.824282   -0.063438   -2.791548
H      -0.901520   -2.580193   -2.120586
H       2.036610   -1.856071   -1.404068
H       2.060735   -4.146947   -0.316011
H       0.291133   -4.341501   -0.735301
H       0.846827   -4.019295   -2.994193
