23

C       0.100501    1.614425   -0.048955
C       0.045151    0.086282   -0.018615
C       0.588092   -0.556334   -1.321914
C       1.011047   -2.017666   -1.096203
C       0.160256   -2.678275    0.030407
C       1.122480   -1.972848    1.031207
C       2.194362   -2.043746   -0.095580
C       0.696935   -0.514531    1.266228
O       1.771968    0.256179    1.794528
H       1.133257    1.972665   -0.082988
H      -0.424827    2.001649   -0.928683
H      -0.363715    2.048153    0.842343
H      -1.012689   -0.197053    0.044158
H      -0.184277   -0.490751   -2.097410
H       1.450654    0.007782   -1.702771
H       1.126703   -2.557707   -2.039164
H      -0.909760   -2.460594    0.085222
H       0.301314   -3.762235    0.048353
H       1.349068   -2.465728    1.979267
H       2.714823   -3.004858   -0.086653
H       2.945144   -1.248060   -0.181193
H      -0.056808   -0.484560    2.062230
H       2.545471    0.112279    1.239805
