20

C      -0.017615    1.638455    0.118769
C       1.494314    1.372669   -0.049962
C       2.322343    1.336824    1.240616
C       2.034104    0.114218    2.133520
C       0.550265   -0.143173    2.451774
C      -0.279302   -0.682446    1.270504
C      -0.141754    0.108296   -0.027890
O       1.216298    0.035285   -0.544331
H      -0.356296    2.094618    1.050518
H      -0.445243    2.179844   -0.726892
H       1.995002    1.977193   -0.814238
H       3.389170    1.336016    0.987369
H       2.137245    2.269054    1.791888
H       2.448481   -0.775603    1.647226
H       2.583873    0.243049    3.073101
H       0.486592   -0.871716    3.268453
H       0.094272    0.776283    2.842098
H       0.024378   -1.714422    1.052109
H      -1.339589   -0.721413    1.553851
H      -0.858815   -0.252276   -0.774100
