17

C      -0.040122    1.538822    0.016962
C       0.005981    0.035637   -0.015863
C      -0.008215   -0.666716   -1.211560
C       0.057503   -2.062079   -1.183205
O       0.047714   -2.742502   -2.356552
N       0.128620   -2.764210   -0.063801
C       0.130808   -2.088603    1.090952
C       0.076351   -0.700907    1.186358
N       0.164176   -0.045689    2.428164
H       0.792333    1.942044    0.604864
H       0.008576    1.959603   -0.989616
H      -0.965333    1.905133    0.482620
H      -0.061767   -0.151003   -2.163431
H       0.102031   -3.677004   -2.115225
H       0.185355   -2.689967    1.997300
H       0.001231   -0.664106    3.212010
H      -0.432622    0.767257    2.506726
