15

N      -0.004397    1.404932    0.142576
C       0.026042    0.030115    0.056168
C      -1.175595   -0.717376    0.044306
N      -1.230828   -2.033157    0.012038
C      -0.073666   -2.719698   -0.010424
C      -0.125512   -4.201066   -0.047688
O      -1.125674   -4.874822   -0.060985
C       1.166016   -2.076094   -0.003038
C       1.224115   -0.692082    0.029048
H       0.820963    1.903706   -0.150504
H      -0.864932    1.859044   -0.121553
H      -2.127499   -0.186078    0.063228
H       0.886739   -4.671287   -0.063084
H       2.079078   -2.663040   -0.025410
H       2.177074   -0.171675    0.036077
