17

O      -0.063958    0.006251    0.005284
C      -0.084196    1.216379    0.012037
C      -1.266638    2.103119    0.032808
C      -0.877763    3.383651    0.034437
C       0.622027    3.548399    0.015025
C       1.164512    2.110897   -0.000115
C       2.269251    1.708680    1.012199
O       3.228660    1.472109   -0.031688
C       2.241212    1.719808   -1.046439
H      -2.280268    1.724424    0.044495
H      -1.544327    4.239630    0.048067
H       0.941608    4.125044   -0.862305
H       0.965309    4.115523    0.889605
H       2.589465    2.501441    1.699794
H       2.042613    0.794772    1.574207
H       1.999222    0.811997   -1.611918
H       2.542693    2.520006   -1.733889
