17

O       0.346988    1.402852   -0.006753
C       0.146074    0.052692    0.009818
C      -0.085604   -0.702656   -1.103179
O      -0.241598   -2.011702   -0.721920
C      -0.106912   -2.069291    0.626009
C       0.132694   -0.833527    1.136806
C      -0.185880   -0.365565   -2.524938
C       0.325303   -1.308883   -3.596792
C      -1.154483   -1.089235   -3.440328
H       0.488165    1.705369    0.894291
H      -0.206408   -3.046055    1.069083
H       0.281101   -0.579685    2.175640
H      -0.047304    0.694920   -2.703650
H       0.828803   -0.875489   -4.453833
H       0.730417   -2.257525   -3.263647
H      -1.737927   -1.891147   -3.002669
H      -1.676494   -0.503645   -4.188960
