21

C      -0.037985    1.467122    0.024128
C       0.043567   -0.041370    0.000288
C       0.626778   -0.688323   -1.283592
C       0.192604   -2.160820   -1.110897
C       1.071837   -2.899841   -0.072988
C       0.262110   -2.190950    1.039792
C       0.707873   -0.723476    1.225229
C      -0.903454   -1.978636    0.003754
O      -1.277667   -0.621034    0.034870
H       0.964213    1.905910   -0.001033
H      -0.596861    1.837258   -0.840598
H      -0.541343    1.812087    0.932270
H       0.153545   -0.237191   -2.160917
H       1.710517   -0.568163   -1.374095
H      -0.052536   -2.665527   -2.045910
H       0.892497   -3.979006   -0.082313
H       2.151600   -2.721360   -0.105384
H       0.077379   -2.721849    1.974185
H       1.795303   -0.604919    1.248859
H       0.292714   -0.297491    2.143571
H      -1.771712   -2.634226    0.022629
