16

C      -0.028511    1.387105   -0.342206
O       1.322157    1.645294    0.083797
C       1.452196    0.320340    0.631542
C       0.068986   -0.106730    0.070050
C      -0.944379   -0.656866    1.008233
N      -1.596932   -1.796041    0.750434
N      -2.392184   -1.940991    1.801376
N      -2.325989   -1.001258    2.733265
C      -1.406521   -0.167445    2.248616
H      -0.762241    1.968513    0.231734
H      -0.171951    1.584744   -1.410451
H       2.321651   -0.211746    0.229398
H       1.512971    0.329410    1.727916
H       0.151930   -0.774623   -0.787788
H      -3.015911   -2.727203    1.887303
H      -1.124581    0.719573    2.793422
