17

O       0.282389    1.323958   -0.072470
C       0.203225   -0.056542    0.098976
C       0.224455   -0.652665    1.563751
C      -1.166077   -1.226135    1.298139
N      -2.017795   -0.056005    0.948773
C      -1.186221   -0.701163   -0.094411
C      -1.781561   -1.258447   -1.360787
C      -2.258327   -0.218086   -2.278400
N      -2.645291    0.598346   -2.997915
H      -0.497862    1.691431    0.365234
H       0.970819   -0.508835   -0.534388
H       0.998564   -1.411412    1.696640
H       0.281082    0.084833    2.367380
H      -1.613200   -2.129462    1.694841
H      -2.977206   -0.381330    0.834054
H      -1.039027   -1.870371   -1.886699
H      -2.623566   -1.921228   -1.124696
