20

C      -0.025424    1.558913   -0.037775
C       0.104587    0.035452    0.003593
C       0.766825   -0.530618   -1.264432
C       0.929173   -2.037901   -1.147962
O       1.601503   -2.510768   -2.304299
C       1.748343   -2.341877    0.106917
O       1.194600   -1.764419    1.292583
C       0.796286   -0.450498    1.267753
N       0.899064    0.275706    2.298818
H       0.960131    2.031807   -0.085793
H      -0.596477    1.863482   -0.920675
H      -0.525312    1.931198    0.857066
H      -0.907116   -0.396911    0.056206
H       0.167641   -0.281563   -2.145490
H       1.757914   -0.081761   -1.411197
H      -0.065082   -2.503194   -1.051722
H       1.601828   -3.473308   -2.285274
H       1.799813   -3.417439    0.303192
H       2.771667   -1.972258   -0.047842
H       1.356027   -0.250029    3.047129
