16

C      -0.097418    1.469327   -0.215845
N      -0.024492    0.029851   -0.066052
N       0.253033   -0.773900   -1.085419
C       0.239872   -1.989837   -0.536895
C      -0.059557   -1.868966    0.830107
C      -0.157310   -2.918636    1.891828
C       1.190932   -3.177285    2.556680
O       1.660655   -4.268395    2.738032
N      -0.219766   -0.568059    1.102527
H       0.711355    1.949240    0.341401
H      -0.000705    1.691742   -1.277180
H      -1.056262    1.831421    0.160775
H       0.430795   -2.870340   -1.129616
H      -0.841466   -2.568468    2.675024
H      -0.535257   -3.864908    1.497828
H       1.720890   -2.251210    2.873331
