16

C      -0.225063   -0.279452    1.280147
C      -0.134260    0.521835    0.388637
C       0.000223    1.436860   -0.750458
N       1.262647    2.171035   -0.872950
C       1.399666    3.380342   -0.048835
C       1.477075    3.170042    1.410791
C       1.543251    2.998981    2.597890
C       2.569201    4.142983   -0.506520
C       3.530088    4.760131   -0.876235
H      -0.307775   -0.964768    2.087005
H      -0.133231    0.857075   -1.672684
H      -0.814349    2.171247   -0.737033
H       2.052006    1.555173   -0.709480
H       0.504125    3.986445   -0.251168
H       1.595993    2.835041    3.645849
H       4.378005    5.309052   -1.204260
