19

C      -0.124747    1.597752    0.030808
C       0.045577    0.083292   -0.027701
C       0.819284   -0.521231   -1.209014
C       2.336150   -0.127714   -1.170985
C       2.605872   -1.435605   -0.434707
C       1.231491   -1.957529   -0.748361
C       1.584194   -1.674026    0.694385
C       0.782447   -0.510933    1.188256
O       0.683375   -0.128134    2.328804
H       0.832480    2.116385   -0.081125
H      -0.795358    1.954721   -0.756554
H      -0.542269    1.881297    1.000894
H      -0.949792   -0.388507   -0.007467
H       0.323483   -0.421872   -2.173693
H       2.775914   -0.144916   -2.171281
H       2.609189    0.811240   -0.678645
H       3.545752   -1.972975   -0.391224
H       0.897194   -2.914001   -1.127114
H       1.830703   -2.473500    1.381906
