18

C      -0.280034    1.504059   -0.063885
C       0.127117    0.048878   -0.076718
O       1.411837   -0.155191   -0.771684
C       1.976601   -0.717283    0.351777
N       3.124735   -1.176415    0.559876
C       0.735381   -0.582979    1.196437
C       0.738117    0.073180    2.591061
O       0.070009   -1.058732    3.179683
C       0.108971   -1.781852    1.935104
H       0.488608    2.125446    0.405041
H      -0.434017    1.861206   -1.086208
H      -1.217846    1.632573    0.486436
H      -0.636858   -0.578081   -0.548994
H       3.716333   -1.106079   -0.269631
H       1.740381    0.226266    3.007748
H       0.153800    0.995915    2.689257
H      -0.891407   -2.077208    1.593606
H       0.756785   -2.664667    1.987101
