16

C      -0.005453    1.539236    0.141655
C       0.014463    0.058246   -0.020972
C       0.004889   -0.755378   -1.133900
N       0.033207   -2.090299   -0.766651
C       0.059287   -2.092047    0.539939
N       0.049295   -0.818596    1.039566
C      -0.030088   -0.337015   -2.554462
N      -0.031000   -1.381872   -3.424288
O      -0.053967    0.834602   -2.908690
H       0.884497    1.898409    0.672457
H      -0.032181    1.992084   -0.849307
H      -0.884435    1.870771    0.707553
H       0.085662   -2.962648    1.178142
H       0.064649   -0.560047    2.012724
H      -0.007830   -2.324796   -3.073193
H      -0.050900   -1.192894   -4.411003
