17

C      -0.023923    1.501838    0.400107
C       0.018591    0.066989   -0.144122
C      -1.345460   -0.559022   -0.215462
O      -2.003868   -0.899101    1.029506
C      -1.732870   -1.940732    0.095129
C      -2.947425   -2.273158   -0.741236
O      -3.317445   -1.044766   -1.392089
C      -2.380401   -0.072322   -1.212715
O      -2.416082    0.973596   -1.793836
H       0.984460    1.921903    0.447741
H      -0.636496    2.138029   -0.242230
H      -0.448054    1.516841    1.408275
H       0.454910    0.058463   -1.149779
H       0.653252   -0.562051    0.489230
H      -1.029637   -2.708559    0.403577
H      -2.721177   -3.023954   -1.506223
H      -3.795226   -2.611321   -0.138952
