23

C      -0.019666    1.506372    0.028011
C       1.420303    1.994967    0.056438
C       2.298667    0.815053    0.428498
C       1.382831   -0.364557    0.730232
C       0.049783   -0.046719    0.007131
C      -0.014859   -0.653114   -1.411355
C       1.294380   -0.593349   -2.209694
C       1.946525    0.791964   -2.286930
C       2.374813    1.422505   -0.963540
H      -0.527327    1.844107    0.939459
H      -0.596613    1.900350   -0.817338
H       1.612677    2.990872    0.442122
H       3.164820    0.948506    1.068834
H       1.793722   -1.337976    0.442296
H       1.222597   -0.400596    1.815002
H      -0.795571   -0.453377    0.571159
H      -0.318014   -1.704862   -1.332769
H      -0.812996   -0.149949   -1.973034
H       2.018695   -1.295150   -1.779402
H       1.101948   -0.950654   -3.228516
H       2.836789    0.707198   -2.921679
H       1.274715    1.485622   -2.812610
H       3.263916    2.038183   -1.080632
