23

C      -0.252891    1.544048    0.016920
C       0.176944    0.073190   -0.068152
C       0.849596   -0.470970    1.199518
C       2.187650    0.216705    1.473230
C      -0.068628   -0.729255    2.429116
C      -0.688957   -2.030499    1.806360
C      -0.400799   -2.862946    3.067829
C       0.811603   -1.924031    2.943889
C       0.821871   -2.015365    1.376618
H       0.601895    2.215102    0.144111
H      -0.775904    1.850236   -0.894583
H      -0.933033    1.709446    0.859752
H      -0.702641   -0.535915   -0.303879
H       0.866820   -0.053881   -0.913828
H       2.059164    1.286662    1.667638
H       2.699778   -0.212123    2.338658
H       2.857235    0.120330    0.610046
H      -0.595196   -0.009897    3.061390
H      -1.552551   -2.084665    1.143436
H      -1.062417   -2.703037    3.925800
H      -0.214052   -3.932168    2.921900
H       1.682684   -1.853081    3.595337
H       1.326303   -2.782757    0.783516
