13

O      -0.211667    0.060234   -0.361315
C      -0.016087    1.113733    0.173864
C       1.313754    1.866675    0.063630
O       2.367972    1.113833   -0.532536
C       2.379289    1.871739   -1.760043
C       1.324651    2.820192   -1.189790
O       0.767661    3.815801   -1.506317
C       1.684802    2.525489    1.375457
O       0.909634    3.192588    2.008022
H      -0.768696    1.653461    0.781103
H       3.353314    2.325118   -1.976961
H       2.035852    1.287036   -2.621663
H       2.733567    2.333489    1.683480
