15

O       0.006406    1.418850    0.009543
C       0.041968    0.002883    0.001682
C      -1.399934   -0.489518    0.012864
C      -1.486299   -2.013794    0.005652
C      -2.904602   -2.532898    0.016495
O      -3.899471   -1.854900    0.029356
C      -3.015415   -4.011502    0.009302
N      -3.085590   -5.165644    0.003447
H       0.910612    1.746137    0.002400
H       0.561211   -0.381444   -0.892283
H       0.578180   -0.390860    0.881422
H      -1.908163   -0.090232    0.895958
H      -1.924909   -0.080989   -0.856094
H      -0.986966   -2.449253   -0.872512
H      -0.970319   -2.458426    0.869479
