15

O       0.007284   -0.139378   -0.001908
C      -0.002381    1.063301    0.003737
C       1.270160    1.896875   -0.002214
C       2.527302    1.012955   -0.016657
C       3.749577    1.811858   -0.022103
N       4.704767    2.461733   -0.026173
C      -1.308233    1.879144    0.017730
C      -2.509671    1.054704    0.022280
N      -3.473392    0.419711    0.026033
H       1.254629    2.565134   -0.872110
H       1.268486    2.556199    0.874626
H       2.530282    0.350890    0.854448
H       2.516601    0.359976   -0.894535
H      -1.306984    2.536259    0.896445
H      -1.320070    2.545740   -0.853715
