16

C      -0.252254    1.674378   -0.271057
C      -0.368893    0.182849   -0.527936
O      -1.061324   -0.401228    0.570382
C      -1.221856   -1.800193    0.482245
C      -1.819662   -2.228451    1.834919
O      -1.547212   -3.252455    2.394105
C      -2.133542   -2.217166   -0.588748
C      -2.914094   -2.557447   -1.437490
H       0.279067    2.157947   -1.096037
H      -1.243660    2.127409   -0.183750
H       0.296455    1.865529    0.655356
H      -0.915235   -0.014406   -1.461021
H       0.627306   -0.277977   -0.623701
H      -0.254219   -2.312492    0.365944
H      -2.534087   -1.481561    2.239749
H      -3.593298   -2.863923   -2.194910
