16

N      -0.008371    1.006654    0.572501
C      -0.079861   -0.052036   -0.253887
O       0.718018   -0.325267   -1.137581
C      -1.297303   -0.939829    0.009354
N      -2.085365   -0.638263    0.973318
N      -1.351093   -1.960080   -0.884960
C      -2.366617   -2.989327   -0.879703
C      -2.261879   -3.942655    0.231162
C      -2.181663   -4.718953    1.144306
H       0.764564    1.645310    0.504114
H      -0.721864    1.102318    1.279396
H      -2.840190   -1.311987    1.096683
H      -0.548657   -2.024054   -1.496339
H      -3.359926   -2.518586   -0.857450
H      -2.304274   -3.525502   -1.831912
H      -2.104764   -5.404490    1.951974
