23

C      -0.007784    1.633920    0.074150
C       0.053991    0.101043    0.042731
C       0.791065   -0.440078    1.276844
C      -1.350026   -0.501624   -0.062272
C      -2.268346   -0.088923   -1.221496
C      -1.732619   -0.569240   -2.540539
C      -2.439957   -1.551473   -1.649477
C      -1.520348   -2.007785   -0.527449
O      -0.382904   -2.708298   -0.992984
H       0.996242    2.068927    0.122541
H      -0.502959    2.029766   -0.817812
H      -0.564351    1.987881    0.950812
H       0.623472   -0.201885   -0.844099
H       0.270309   -0.158553    2.200254
H       0.866112   -1.532656    1.260937
H       1.809951   -0.043341    1.336581
H      -1.867679   -0.363246    0.895109
H      -3.033071    0.676080   -1.164212
H      -2.302644   -0.255479   -3.409133
H      -0.666844   -0.664086   -2.719360
H      -3.335173   -2.070889   -1.968109
H      -2.055791   -2.595393    0.228613
H       0.102205   -3.041353   -0.231869
