18

C      -0.919439    1.215921    0.027863
C      -0.041384   -0.020104   -0.035875
N       1.184762    0.096115   -0.873110
C       1.997325   -0.685119    0.104912
C       2.882741    0.308818    0.875375
O       4.026127    0.647672    0.809651
C       1.717635    0.668801    1.832011
C       0.859413   -0.448839    1.155279
O       0.432787   -1.494888    1.973042
H      -0.336151    2.105681    0.280318
H      -1.399923    1.399649   -0.939134
H      -1.714084    1.089286    0.772139
H      -0.647002   -0.899123   -0.302624
H       1.129903   -0.317630   -1.795613
H       2.371127   -1.664257   -0.200970
H       1.964742    0.428888    2.871258
H       1.357125    1.698038    1.776942
H      -0.105910   -1.129837    2.683455
