21

C      -1.782325    0.157452    2.079269
C      -0.902259    0.393119    0.877981
O      -0.233564    1.665932    0.750756
C       0.569131    0.479736    0.866066
C       1.491810    0.440034    2.085257
C       2.867355    1.009310    1.705126
O       0.937496    1.212756    3.150732
C       1.616878   -0.988535    2.641085
O       2.393441   -1.018362    3.820812
H      -2.704037    0.741854    1.985105
H      -2.066552   -0.899748    2.122400
H      -1.281384    0.424346    3.008845
H      -1.353323    0.077340   -0.065462
H       1.067707    0.197752   -0.062928
H       2.772706    2.051071    1.383708
H       3.530578    0.962358    2.570533
H       3.321599    0.437445    0.888832
H       0.488248    1.960030    2.731381
H       0.608269   -1.391633    2.815796
H       2.117870   -1.635224    1.912920
H       2.007052   -0.356560    4.407237
