14

O      -0.431188    0.433625    0.666004
C       0.296169    0.808984   -0.209345
C       1.364886    1.918311   -0.020902
C       1.375613    2.534916    1.406725
O       2.746033    2.494313    1.764388
C       3.244769    1.341940    1.156225
O       2.632037    1.269646   -0.134958
C       1.224999    2.913618   -1.091604
N       1.054663    3.677060   -1.942086
H       0.310024    0.353233   -1.218398
H       1.034871    3.569310    1.434987
H       0.755925    1.913285    2.063889
H       4.324950    1.433725    1.024744
H       2.993445    0.436282    1.732784
