23

C       0.037844    1.582146   -0.005021
C      -0.011142    0.052289   -0.057853
C       0.721779   -0.508037   -1.284731
C       0.505655   -2.021059   -1.415505
C       0.816942   -2.751616   -0.129343
O       2.050931   -2.408250    0.511304
C       0.816617   -2.062053    1.175313
C       0.558256   -2.842401    2.444272
C       0.543333   -0.562118    1.241931
H       1.073565    1.938165    0.046221
H      -0.422948    2.024918   -0.894341
H      -0.489318    1.969197    0.873872
H      -1.066053   -0.250197   -0.143662
H       0.370342   -0.006821   -2.193618
H       1.794415   -0.298406   -1.197394
H      -0.539273   -2.230779   -1.683025
H       1.122481   -2.432896   -2.223793
H       0.606705   -3.823632   -0.137335
H       0.862126   -3.885526    2.325414
H       1.123789   -2.414751    3.280090
H      -0.503920   -2.813596    2.711125
H       1.488701   -0.070254    1.507901
H      -0.151447   -0.356564    2.064691
