18

C       0.271495    1.483673    0.027830
C      -0.174327    0.031237    0.040510
O      -0.650879   -0.478967    1.028792
C      -0.009086   -0.764642   -1.249935
C      -1.137971   -0.415223   -2.226771
C       1.406987   -0.794011   -1.891237
O       1.473199   -2.223791   -1.774889
C       0.220970   -2.280248   -1.055063
H       1.366665    1.529445    0.049720
H      -0.050490    2.002541   -0.880038
H      -0.117758    1.993014    0.910081
H      -1.124773    0.643999   -2.503672
H      -1.032603   -1.002318   -3.144340
H      -2.114827   -0.640401   -1.786868
H       1.463825   -0.456350   -2.933904
H       2.200006   -0.298022   -1.314996
H       0.349178   -2.586065   -0.011770
H      -0.502956   -2.942678   -1.543474
