21

O      -0.608010    1.723522    0.447266
C      -0.233931    0.406801    0.169298
C      -0.297966   -0.738055    1.147336
C      -1.199606   -0.602987    2.367498
C      -2.563038   -0.154897    1.823437
C      -3.783915   -0.149399    2.693134
C      -3.173926    1.166266    2.270008
C      -2.635248   -0.585565    0.352032
C      -1.188553   -0.727188   -0.102944
H      -1.392910    1.713199    1.005733
H       0.650378    0.426469   -0.460451
H       0.560121   -1.397670    1.226959
H      -1.288661   -1.580894    2.856965
H      -0.807493    0.094668    3.116951
H      -4.731300   -0.433912    2.246414
H      -3.673697   -0.446755    3.731149
H      -2.655575    1.747412    3.027191
H      -3.715364    1.760280    1.539432
H      -3.134853   -1.558520    0.265060
H      -3.209723    0.123771   -0.255405
H      -0.988740   -1.378752   -0.947507
