17

N       0.347006    1.311027   -0.268040
C       0.005633   -0.064887   -0.045946
C      -0.659428   -0.974354   -1.077656
C      -1.389262   -0.560380    0.181815
O      -1.445946   -1.447248    1.266487
C      -0.129674   -1.919913    1.513468
C       0.828132   -0.790534    1.029238
C       2.115811   -1.300291    0.570015
N       3.130344   -1.709425    0.196182
H       1.060371    1.396293   -0.986675
H      -0.457050    1.842435   -0.583045
H      -0.977540   -0.495476   -1.997901
H      -0.328211   -2.000385   -1.198266
H      -2.263607    0.079240    0.133125
H      -0.032522   -2.126743    2.581171
H       0.066808   -2.847751    0.961853
H       1.006419   -0.064707    1.829086
