20

C       0.629061    1.432005    0.115322
C      -0.021610    0.090003   -0.088829
C      -0.080457   -0.492059   -1.287406
C      -0.708786   -1.832483   -1.593076
C      -0.358609   -2.999707   -0.695380
C       0.015592   -3.011704    0.584334
C       0.149727   -1.860023    1.546820
C      -0.595743   -0.576651    1.144266
H       1.449051    1.367409    0.843198
H       1.034072    1.835765   -0.816495
H      -0.085466    2.159890    0.522149
H       0.343349    0.033828   -2.140620
H      -1.807591   -1.729223   -1.627847
H      -0.434931   -2.114417   -2.616258
H      -0.433281   -3.965622   -1.192773
H       0.244294   -3.983997    1.018995
H      -0.221705   -2.192795    2.525680
H       1.214290   -1.631778    1.705292
H      -0.574132    0.123547    1.986396
H      -1.651696   -0.827465    0.977606
