13

C      -0.007666    1.488581    0.018414
C       0.007431    0.033798   -0.004803
C       0.030694   -1.169530   -0.029709
C       0.000606   -2.639413   -0.038795
N      -1.339761   -3.248612    0.001271
C       0.725296   -3.159097   -1.217222
N       1.295499   -3.556626   -2.139096
H       1.010901    1.890933    0.015405
H      -0.528709    1.892434   -0.855993
H      -0.513003    1.865536    0.913981
H       0.541180   -3.010250    0.842832
H      -1.808357   -2.920439    0.841483
H      -1.883771   -2.896960   -0.782510
