20

C      -0.032756    1.493314    0.003864
C       0.047032   -0.016675    0.047069
C       0.779247   -0.697511   -1.132345
O       1.041211   -2.038494   -0.665558
C       0.479490   -2.096731    0.661719
C       0.807973   -0.703643    1.207124
C      -1.032867   -2.052112    0.459023
C      -1.869315   -1.127849    1.266956
N      -1.305447   -0.664601   -0.009969
H       0.967629    1.937762   -0.004307
H      -0.567590    1.824884   -0.891267
H      -0.569896    1.880849    0.875515
H       0.147228   -0.726564   -2.025980
H       1.728968   -0.202211   -1.370438
H       0.886660   -2.970587    1.169384
H       1.881691   -0.509061    1.177575
H       0.436923   -0.480522    2.206540
H      -1.483399   -2.861327   -0.107853
H      -2.947600   -1.252747    1.229643
H      -1.507607   -0.736349    2.211673
