16

C       0.008261    1.468593   -0.027286
C       0.001577    0.015087    0.033206
C      -0.013608   -1.187887    0.080470
C       0.003937   -2.618894    0.121561
C      -0.567794   -3.380454    1.303745
C      -1.308616   -3.396537   -0.016451
O      -2.457959   -2.629947   -0.161932
C      -1.279725   -4.612746   -0.802623
N      -1.273691   -5.591012   -1.419973
H       0.783892    1.831874   -0.710229
H      -0.953952    1.852012   -0.384010
H       0.198795    1.909624    0.957350
H       0.850521   -3.090775   -0.368486
H      -0.060661   -4.281495    1.627536
H      -1.034950   -2.788581    2.081777
H      -3.187527   -3.092474    0.266947
