19

C       0.953236   -1.447228    0.153412
C      -0.048907   -0.709243   -0.734316
O      -0.094894   -1.266133   -2.048000
C      -1.474517   -0.603823   -0.185452
C      -2.351858    0.369388   -0.974616
C      -1.898351    1.753959   -0.837200
N      -1.518656    2.839768   -0.726561
C      -2.133955   -1.794311    0.417788
N      -1.775229   -0.632342    1.247747
H       1.906642   -1.507140   -0.376770
H       1.130112   -0.920674    1.096426
H       0.634161   -2.471115    0.380052
H       0.323466    0.310057   -0.890230
H      -0.427275   -2.167871   -1.968812
H      -2.330770    0.096329   -2.034621
H      -3.385012    0.304744   -0.622208
H      -3.200815   -1.951305    0.281992
H      -1.559908   -2.710644    0.526938
H      -0.941747   -0.832120    1.793327
