18

C       0.004186    1.606571   -0.009061
C       0.012708    0.063933   -0.044067
C      -1.409406   -0.505146   -0.032449
O      -2.021311   -0.099424    1.181337
C       0.758428   -0.407550   -1.277832
O       0.238184   -0.478771   -2.373787
C       2.223336   -0.789549   -1.132507
O       2.798631   -1.097580   -2.364545
H       1.017951    2.013040    0.053183
H      -0.469697    2.004223   -0.911894
H      -0.561508    1.944246    0.860990
H       0.537014   -0.301758    0.847778
H      -1.951413   -0.131998   -0.911934
H      -1.369272   -1.602754   -0.110939
H      -2.941462   -0.377230    1.162270
H       2.756126    0.038031   -0.635755
H       2.271500   -1.643480   -0.432862
H       2.066367   -1.043685   -3.000477
