16

C      -0.409641    1.320019    0.080888
N       0.002129   -0.060176   -0.042805
N       0.370669   -0.588214   -1.255468
C       0.664150   -1.832119   -0.937964
N       0.518845   -2.160949    0.377066
C       0.102129   -1.021252    0.902622
N      -0.199193   -0.801738    2.224839
C      -0.106083   -1.765210    3.212023
N      -0.405673   -1.473591    4.412296
H      -0.354375    1.762296   -0.912825
H      -1.439397    1.395183    0.447238
H       0.254559    1.873046    0.754133
H       0.998613   -2.540630   -1.681095
H      -0.510860    0.109528    2.526070
H       0.235732   -2.725625    2.820779
H      -0.285186   -2.286011    5.012865
