17

C      -0.430875    1.002370   -0.317458
C       0.977664    1.133474    0.202161
C       0.357555   -0.228717    0.078417
N      -0.004876   -0.898654    1.290920
C      -1.024515   -1.819156    1.294323
N      -1.207308   -2.765002    2.201530
C      -2.365026   -3.353540    1.781173
N      -2.906243   -2.854074    0.689258
N      -2.018829   -1.855198    0.379205
H      -1.233901    1.306388    0.343700
H      -0.611130    1.174515   -1.372714
H       1.766384    1.394977   -0.493185
H       1.101989    1.526699    1.204325
H       0.713452   -0.861198   -0.736048
H       0.754394   -1.169909    1.899745
H      -2.816811   -4.183894    2.303745
H      -2.173701   -1.262827   -0.417561
