23

C      -0.005182    1.586886    0.026661
C      -0.057948    0.055170   -0.003872
C       0.715249   -0.549173   -1.177989
C       2.274525   -0.417601   -1.116785
C       2.607129   -1.912620   -1.290753
C       1.677967   -2.618949   -0.286119
C       0.655911   -2.098174   -1.330447
C      -0.658032   -2.764684   -1.626484
O       1.690534   -2.308430   -2.356903
H       1.024159    1.950124    0.114546
H      -0.427677    2.012919   -0.890062
H      -0.572624    1.986734    0.872815
H       0.330391   -0.340345    0.943543
H      -1.107313   -0.262780   -0.059830
H       0.337460   -0.113901   -2.110301
H       2.686685    0.185385   -1.928496
H       2.635258   -0.013396   -0.165253
H       3.642299   -2.209019   -1.460472
H       1.775035   -3.704491   -0.332164
H       1.631116   -2.266160    0.747452
H      -1.355414   -2.631212   -0.793379
H      -1.113426   -2.333699   -2.524730
H      -0.519732   -3.836530   -1.791920
