18

C       0.188962    1.533308   -0.019883
C       0.021256    0.047848    0.008889
C      -1.082236   -0.714267   -0.035365
C      -2.539168   -0.395843   -0.125126
O      -2.787558    0.975442    0.142014
C      -0.696353   -2.159088    0.014880
O      -1.436868   -3.123949    0.021933
N       0.677039   -2.174387    0.053564
C       1.241894   -0.848468    0.093666
H       0.819097    1.832807   -0.867229
H      -0.772612    2.036219   -0.096371
H       0.699617    1.884248    0.886087
H      -2.900051   -0.680269   -1.128063
H      -3.069851   -1.052111    0.581595
H      -3.732572    1.125349    0.050209
H       1.196841   -3.026302    0.174232
H       1.929008   -0.660956   -0.744742
H       1.805658   -0.661131    1.019959
