18

O       0.012052    0.233503   -0.946839
C      -0.006809    1.222624   -0.267905
C      -1.288253    1.985688    0.046972
N      -1.190072    2.691735    1.316673
C      -0.134384    3.686349    1.262438
C       0.431403    4.003276    2.672536
C       1.443434    2.834373    2.494184
C       1.186353    2.934420    0.974606
O       1.150329    1.718932    0.229311
H      -1.489322    2.646091   -0.818994
H      -2.089772    1.245639    0.082095
H      -2.078431    3.111338    1.567376
H      -0.362380    4.538827    0.602057
H       0.919066    4.980636    2.703615
H      -0.278025    3.928237    3.498171
H       2.467826    2.977982    2.840362
H       1.047642    1.898020    2.889084
H       1.918617    3.579567    0.481660
