14

O      -0.338830    0.082133   -0.090375
C      -0.067510    1.170328    0.336671
C       1.246078    1.888655    0.011705
C       2.345043    0.973343   -0.628142
C       2.301892    1.849952   -1.883435
O       2.942390    1.890823   -2.887706
C       1.139093    2.707221   -1.348496
C       1.677990    2.696257    1.140010
N       1.999983    3.332178    2.050352
H      -0.770626    1.751620    0.966792
H       3.303875    0.925363   -0.109478
H       1.962217   -0.037404   -0.799456
H       0.196839    2.551405   -1.881505
H       1.339261    3.777540   -1.271363
