20

C      -0.192097    1.578614    0.065918
C       0.052244    0.077702   -0.020979
C      -1.258070   -0.683323   -0.181895
C       1.161182   -0.425298   -0.996602
C       1.849948   -1.027889    0.217401
C       2.122358    0.005474    1.250063
N       0.766234   -0.522944    1.196687
C       2.345907   -2.410838    0.332051
O       2.523713   -3.146771   -0.608690
H       0.732494    2.154994    0.155690
H      -0.706272    1.925168   -0.836744
H      -0.825663    1.813068    0.927722
H      -1.753299   -0.403414   -1.117521
H      -1.081108   -1.762504   -0.193421
H      -1.933632   -0.461653    0.650362
H       0.811061   -1.177731   -1.704127
H       1.733161    0.333674   -1.536895
H       2.656636   -0.303139    2.144586
H       2.345205    1.016544    0.919507
H       2.535161   -2.737214    1.379670
