19

O      -0.040305    1.428800   -0.088534
C       0.016024    0.012983    0.006288
C       0.706252   -0.494613    1.304094
C      -0.291964   -1.387762    2.054773
O      -1.415908   -0.640813    2.460684
C      -2.089783   -0.044638    1.338937
C      -1.424708   -0.512835    0.039812
C      -1.368179   -2.043668    0.067075
O      -0.668344   -2.481729    1.239184
H       0.855063    1.770977   -0.003684
H       0.524124   -0.400657   -0.877774
H       1.615974   -1.061552    1.087624
H       0.969322    0.356708    1.939995
H       0.133315   -1.819779    2.962402
H      -3.141490   -0.355327    1.371239
H      -2.042498    1.046097    1.424732
H      -1.982949   -0.157356   -0.830337
H      -2.382237   -2.463877    0.085380
H      -0.853131   -2.440053   -0.818917
