17

C       0.372727    1.803087    0.925556
N       0.327860    0.389367    1.235894
C       0.097287   -0.410858    0.283311
N       0.042488   -1.776337    0.521665
C      -0.201147   -2.736253   -0.442750
N      -0.402697   -2.450882   -1.664322
C      -0.654581   -3.482995   -2.644456
C      -0.198955   -4.089709    0.101395
N      -0.201361   -5.170232    0.512717
H       1.349915    2.209627    1.210738
H       0.196231    2.032445   -0.136912
H      -0.376903    2.333288    1.524265
H      -0.073816   -0.144413   -0.762733
H       0.194794   -2.069038    1.475447
H      -1.624166   -3.294849   -3.119406
H       0.102002   -3.416807   -3.434539
H      -0.653619   -4.505367   -2.243285
