18

C      -0.044877    1.516682   -0.009650
C       0.022274    0.009217    0.005540
C      -0.774445   -0.770296    0.999199
C       0.751065   -0.759445    1.105355
C       1.445205   -1.918206    0.470725
O       2.337385   -2.570471    0.954454
C       0.876459   -2.091966   -0.948575
C       0.298420   -0.712254   -1.320695
H       0.878910    1.950779   -0.408136
H      -0.873551    1.863742   -0.638293
H      -0.201088    1.919957    0.995692
H      -1.293432   -0.214091    1.772490
H      -1.271957   -1.688986    0.705254
H       1.212141   -0.284775    1.962597
H       1.659282   -2.443580   -1.622782
H       0.106298   -2.872192   -0.924475
H      -0.600092   -0.776366   -1.943837
H       1.041364   -0.138186   -1.886352
