20

C       0.115334    1.438874   -0.085256
C       0.039488   -0.074258   -0.020024
C       1.360886   -0.789936   -0.076359
C       0.595754   -0.713331    1.226777
C       0.563564   -2.256953    1.193095
C       1.058293   -3.091911    2.351539
O       1.622936   -4.302579    1.896400
C      -0.015305   -2.846497   -0.029464
N       1.368694   -2.307007   -0.084285
H       1.024322    1.813295    0.397296
H       0.120100    1.786573   -1.123441
H      -0.741550    1.896024    0.420565
H      -0.844940   -0.480952   -0.499713
H       2.274145   -0.300286   -0.391692
H       0.814861   -0.150443    2.125258
H       1.786109   -2.497241    2.930185
H       0.235494   -3.350676    3.028751
H       2.190153   -4.055375    1.151463
H      -0.010740   -3.930565   -0.079662
H      -0.816982   -2.376320   -0.585065
