20

C      -0.717031    1.136418    0.115183
C       0.016525   -0.184519   -0.035478
C       1.296974   -0.272590   -0.907990
O       1.997082    0.965403   -0.812216
C       1.847452   -1.327328    0.088455
C       0.844661   -0.788804    1.152516
N       1.427361    0.197659    2.036348
C       1.218044    0.221377    3.378937
O       0.557424   -0.580122    4.006744
H      -0.041349    1.939875    0.414684
H      -1.185631    1.430056   -0.829921
H      -1.504959    1.053357    0.870753
H      -0.674738   -0.961930   -0.378862
H       1.176409   -0.568771   -1.957553
H       2.867681    0.842886   -1.204761
H       1.606692   -2.349953   -0.214161
H       2.911465   -1.263774    0.332447
H       0.339237   -1.516450    1.785723
H       1.966000    0.936444    1.609224
H       1.739781    1.075904    3.855256
