16

N       0.207692    1.455069    0.128452
C       0.009822    0.040960    0.055407
C       0.173909   -0.742324    1.377779
N      -0.852856   -0.067651    2.256643
C      -1.853997   -0.796541    1.449524
C      -0.898207   -1.792533    0.880106
C      -1.390902   -0.646591   -0.014104
C      -2.286632   -0.705822   -1.115198
N      -2.996909   -0.730921   -2.030124
H      -0.026040    1.917945   -0.742566
H      -0.361926    1.841599    0.874095
H       0.640671   -0.394646   -0.724284
H       1.153204   -0.932191    1.808480
H      -0.819537   -0.516835    3.170796
H      -2.902228   -0.871981    1.707122
H      -0.918477   -2.858946    0.704304
