19

C       0.250205    1.449378   -0.199935
C      -0.051261   -0.031976    0.019373
C      -1.543018   -0.340336   -0.013999
N       0.758282   -0.940416   -0.847382
C       1.550266   -1.439073    0.190999
N       2.562340   -2.187211    0.308870
C       0.720576   -0.680097    1.200692
C       1.076747   -0.175413    2.524620
O       0.119101   -1.229953    2.350032
H       1.323475    1.649580   -0.127062
H      -0.094377    1.772566   -1.188942
H      -0.265652    2.065321    0.543619
H      -1.979297   -0.039965   -0.972692
H      -1.719395   -1.408485    0.128966
H      -2.062870    0.202180    0.781827
H       1.090568   -0.712394   -1.774571
H       2.903673   -2.513154   -0.597088
H       2.024893   -0.477536    2.964819
H       0.668006    0.773523    2.869161
