16

C      -0.033251   -1.210078    0.008879
C      -0.015513   -0.008670   -0.022543
C       0.012184    1.433408   -0.031885
C      -0.891182    2.202487    1.007499
C      -1.296451    3.090988   -0.150756
C      -0.162053    3.456590   -1.074367
C       1.238710    3.306894   -0.599682
C       1.372183    2.104715   -0.042349
N      -0.786399    2.116147   -1.178563
H      -0.050345   -2.271754    0.025339
H      -1.729712    1.575168    1.313820
H      -0.399887    2.632785    1.884301
H      -2.267390    3.566027   -0.253642
H      -0.400214    4.133272   -1.889337
H       1.991807    4.079054   -0.683313
H       2.236191    1.688948    0.458083
