20

C       0.135054    1.427531   -0.420678
C       1.481863    1.667941    0.322400
C       1.432267    0.214863    0.824700
C      -0.016715    0.063808    0.314178
C       2.391043   -0.932444    0.678340
C       3.840274   -0.612915    1.142924
N       3.918884    0.816790    1.554873
C       3.356634   -0.207595    2.474504
C       1.887612   -0.501216    2.064339
H      -0.658674    2.157300   -0.245580
H       0.261049    1.311563   -1.500132
H       2.342780    1.929671   -0.291357
H       1.410776    2.395079    1.135305
H      -0.753346    0.092925    1.123524
H      -0.227353   -0.810456   -0.308960
H       2.139793   -1.827099    0.120556
H       4.727388   -1.161945    0.854988
H       4.881282    0.979680    1.852545
H       3.779948   -0.373810    3.456640
H       1.187249   -1.014427    2.713080
