16

C      -0.104715    1.406434    0.138581
N       0.384136    0.051502   -0.089532
C       0.824005   -0.714533    0.945187
N       0.837382   -2.006053    1.003778
N       1.484505   -2.248474    2.221081
C       1.711810   -3.590820    2.689436
C       1.813491   -1.109226    2.876941
O       2.348184   -0.909489    3.932549
O       1.369225   -0.083469    2.011552
H       0.625818    1.957944    0.731845
H      -0.209793    1.904107   -0.827426
H      -1.071202    1.436401    0.660307
H      -0.111761   -0.492390   -0.780705
H       0.763653   -4.124595    2.808942
H       2.343971   -4.142734    1.986994
H       2.214743   -3.516141    3.654722
