15

C       0.198323    1.426763    0.147275
N       0.181001   -0.024366    0.110103
C       0.401690   -0.600303   -0.999256
O       0.655487    0.099745   -2.162173
C       0.886402   -0.577465   -3.328325
C       0.870591   -1.921401   -3.363209
O       1.096565   -2.611507   -4.506484
N       0.622738   -2.680104   -2.234338
C       0.404262   -2.052683   -1.131959
H       1.170478    1.832375   -0.166130
H      -0.555598    1.862030   -0.523534
H      -0.006836    1.762785    1.165746
H       1.072536    0.073433   -4.169634
H       1.031404   -3.545856   -4.271101
H       0.205734   -2.615434   -0.223988
