17

C      -0.042632    1.557432    0.012850
C      -0.026502    0.015824    0.007755
C      -1.463959   -0.540287   -0.028577
N       0.773469   -0.504427   -1.091734
C       1.862777   -1.250712   -0.698229
O       2.673887   -1.787295   -1.423256
C       1.803017   -1.239869    0.797460
C       0.746465   -0.531332    1.192660
H       0.976020    1.952647    0.028255
H      -0.549390    1.936893   -0.880874
H      -0.579210    1.937452    0.887954
H      -1.987871   -0.186134   -0.922801
H      -1.453389   -1.632890   -0.042495
H      -2.031869   -0.206478    0.845600
H       0.565147   -0.345751   -2.063299
H       2.537289   -1.749706    1.404661
H       0.426163   -0.334200    2.208563
