23

C      -0.389444    1.486393   -0.139947
C      -0.260125   -0.025973   -0.334305
C       1.108753   -0.443569   -0.891554
C       1.213989   -1.938756   -1.068642
O       0.485569   -2.527314   -2.155617
C       1.917941   -2.627870   -2.163861
C       2.654136   -1.951021   -3.293147
C       2.464268   -2.693359   -4.613090
O       3.224597   -2.014486   -5.600758
H       0.365333    1.863783    0.559295
H      -0.256798    2.020245   -1.087533
H      -1.373679    1.753581    0.256963
H      -0.433250   -0.536718    0.622178
H      -1.038851   -0.383736   -1.017941
H       1.283104    0.062459   -1.846143
H       1.903199   -0.115708   -0.206746
H       1.112436   -2.500006   -0.135312
H       2.274736   -3.638519   -1.946038
H       2.315659   -0.920138   -3.422917
H       3.725436   -1.917317   -3.058793
H       2.794489   -3.739773   -4.503585
H       1.393817   -2.711149   -4.866233
H       3.067314   -2.442305   -6.447341
