19

C       0.001577    1.512499   -0.061804
N      -0.010375    0.070420    0.140295
C      -1.315371   -0.551821    0.013034
C      -1.922029   -0.693669   -1.375217
C      -2.511687   -1.872690   -1.552678
C      -2.424739   -2.746622   -0.323118
C      -1.332543   -2.034619    0.532116
C      -0.032290   -2.675954    0.329442
N       0.985120   -3.195956    0.152547
H       1.025790    1.880675    0.044117
H      -0.379595    1.849328   -1.041229
H      -0.606441    1.994322    0.712632
H       0.655829   -0.383156   -0.476290
H      -1.996893    0.033559    0.648008
H      -1.889409    0.111080   -2.100534
H      -3.035005   -2.190122   -2.447509
H      -3.378695   -2.762344    0.219924
H      -2.168964   -3.786788   -0.543212
H      -1.553567   -2.068429    1.601797
