13

N      -0.021784    1.456598    0.171414
C      -0.007646    0.085646    0.052736
C      -1.071084   -0.804669    0.026146
N      -0.521212   -2.053805   -0.028308
N       0.800401   -2.071371   -0.038291
C       1.124501   -0.776662    0.007392
N       2.499743   -0.374970   -0.013239
O       3.369552   -1.228565   -0.037287
O       2.709481    0.846664   -0.011071
H       0.867258    1.880494   -0.054900
H      -0.824137    1.926160   -0.218516
H      -2.136686   -0.647358    0.046788
H      -1.013932   -2.931706   -0.059350
