17

C       0.106301    1.489572   -0.204786
C      -0.000864   -0.028014   -0.028713
C      -1.463347   -0.464428    0.106984
N       0.606477   -0.693747   -1.200334
C       1.562203   -1.403107   -0.782369
O       1.844653   -1.448739    0.549623
C       0.861208   -0.598654    1.177006
C       1.543050    0.397441    2.005161
N       2.052651    1.189401    2.674198
H       1.147972    1.805273   -0.301698
H      -0.425295    1.782357   -1.113370
H      -0.334896    2.017495    0.645586
H      -2.026516   -0.159801   -0.778496
H      -1.540397   -1.551794    0.200701
H      -1.924478   -0.003907    0.987047
H       2.219806   -2.014725   -1.389374
H       0.247718   -1.225086    1.832574
