21

O      -0.005650   -0.052459   -0.120779
C       0.091192    1.148006   -0.055109
C       1.376149    1.926514    0.002804
C       1.346205    3.186109    0.922173
C       1.875808    4.059123   -0.244792
C       1.608170    2.887970   -1.235587
C       2.779620    2.299255   -2.050725
C       3.018697    0.895511   -1.450530
C       2.628676    1.036739    0.032885
H      -0.822587    1.790424   -0.054179
H       0.326363    3.455966    1.214689
H       1.955249    3.125254    1.827227
H       1.336808    4.990138   -0.434725
H       2.940591    4.293888   -0.159530
H       0.711768    3.051127   -1.840055
H       2.567670    2.260157   -3.122922
H       3.671350    2.924031   -1.924805
H       2.352185    0.167118   -1.925147
H       4.043459    0.540513   -1.592767
H       3.429856    1.534951    0.590813
H       2.428511    0.074501    0.509232
