21

C      -0.396806    1.484911   -0.112370
C      -0.008440    0.012925   -0.055127
C       1.190142   -0.408236   -1.033297
C       2.135670   -0.161354    0.186268
C       2.945478   -0.872172    1.349472
C       1.916675   -0.070559    2.299267
C       0.952500   -0.453465    1.092592
C       1.013702   -1.991017    1.216026
C       2.308896   -2.259396    1.381197
H       0.470142    2.144373   -0.003575
H      -0.874242    1.721558   -1.069430
H      -1.105788    1.733166    0.684534
H      -0.907239   -0.605818   -0.156891
H       1.101657   -1.455465   -1.327603
H       1.352002    0.212397   -1.919065
H       2.386979    0.903994    0.201780
H       4.025240   -0.776725    1.475939
H       1.721331   -0.513072    3.280128
H       2.138348    0.997652    2.384279
H       0.155877   -2.649961    1.189249
H       2.820072   -3.199093    1.534954
