21

C      -0.361535    1.269105   -0.198113
C       1.061014    1.129010    0.286055
C       0.232450   -0.099090    0.003753
C      -0.214773   -0.974770    1.145715
O      -0.541739   -0.220866    2.342516
C      -1.864620   -0.799948    2.421073
C      -1.629211   -1.569546    1.129085
C      -2.555765   -1.749253   -0.031145
C      -2.069383   -2.948532    0.753972
H      -1.092777    1.605286    0.527963
H      -0.535483    1.610434   -1.212520
H       1.870636    1.370711   -0.393437
H       1.249877    1.366906    1.326584
H       0.491125   -0.660433   -0.891115
H       0.564199   -1.720415    1.368099
H      -1.985728   -1.411682    3.325235
H      -2.649512   -0.032902    2.397562
H      -3.590048   -1.442343    0.090615
H      -2.161157   -1.593325   -1.029789
H      -1.342877   -3.606280    0.286194
H      -2.773703   -3.457128    1.405179
