19

C       0.101532    1.603396   -0.094206
C       0.014518    0.079097    0.026819
O       0.602848   -0.238838    1.293523
C      -1.457745   -0.394937   -0.005878
C      -2.310768    0.204888    1.095202
O      -3.410680    0.664336    0.922590
C       0.803474   -0.611647   -1.110515
C       2.272080   -0.234772   -1.143533
O       2.871378    0.058333   -2.146338
H       1.142545    1.933947   -0.049272
H      -0.329060    1.939592   -1.041127
H      -0.439619    2.085703    0.724034
H       0.570032   -1.194969    1.413536
H      -1.928063   -0.177566   -0.969097
H      -1.474100   -1.487868    0.128567
H      -1.845453    0.180940    2.103460
H       0.750586   -1.701132   -0.958527
H       0.366277   -0.397449   -2.089918
H       2.776617   -0.259659   -0.154346
