17

C      -0.028384    1.424515    0.004673
C       1.347734    0.791289   -0.077587
C       1.676662    0.100965    1.253322
O       0.414199   -0.631787    1.262143
C       0.093199   -0.064219   -0.010497
C       0.015007   -0.880683   -1.269533
O      -0.135579   -0.045046   -2.419096
C       1.184271   -0.523450   -2.112939
C       2.063513    0.516255   -1.396740
H      -0.336190    1.909802    0.926532
H      -0.388681    1.875333   -0.911251
H       2.523862   -0.591470    1.183679
H       1.787614    0.731075    2.143747
H      -0.484571   -1.845212   -1.294791
H       1.609679   -1.182439   -2.868394
H       2.199019    1.405539   -2.020855
H       3.058209    0.094446   -1.214373
