17

O       0.029927    1.426518   -0.036377
C       0.060411    0.012978   -0.043269
C       0.738043   -0.616181    1.203339
C       0.070510   -1.991763    1.407446
C      -1.319784   -1.820174    0.801713
O      -1.957264   -0.586907    1.214371
C      -1.316518   -0.629478   -0.068787
C      -2.174158   -2.956406    0.610779
C      -2.852192   -3.939074    0.471754
H      -0.512899    1.692028    0.715682
H       0.595210   -0.261152   -0.960322
H       1.821647   -0.682874    1.089499
H       0.537084    0.029567    2.062248
H       0.591666   -2.782468    0.856909
H       0.024051   -2.297507    2.456408
H      -1.974332   -0.524206   -0.927198
H      -3.463190   -4.798328    0.343588
