17

O      -0.867413    1.058746    0.352523
C       0.255811    0.710541    0.100960
C       1.439871    1.662640    0.025458
C       1.330454    2.840276    1.003191
C       2.664281    3.552282    1.141618
O       3.619642    2.931546    2.012566
C       3.888315    2.924898    0.615523
C       3.792001    1.582007   -0.075953
O       2.602006    0.886279    0.240984
H       0.522722   -0.347190   -0.112751
H       1.450420    2.057306   -1.010396
H       0.560497    3.530684    0.648824
H       1.013394    2.481022    1.987288
H       2.629616    4.637207    1.233610
H       4.724267    3.549298    0.296444
H       3.869957    1.742929   -1.165728
H       4.617284    0.932355    0.231907
