13

N      -0.080779   -1.159419    0.089384
C      -0.047561   -0.004355    0.069295
C      -0.000121    1.439726    0.009425
O       0.612597    2.109264    1.125435
C       1.292225    2.134980   -0.104119
C       2.698429    1.610574   -0.363768
O       2.977093    2.776050   -1.174279
C       1.698206    3.379861   -0.884375
H      -0.901293    1.912692   -0.375613
H       3.327625    1.559561    0.532816
H       2.779007    0.675689   -0.928788
H       1.126720    3.607058   -1.791345
H       1.786530    4.281511   -0.265438
