14

C      -0.003301   -1.168054   -0.032357
C       0.031105    0.033633   -0.030054
C       0.067307    1.453203   -0.018992
O      -0.690065    2.199712   -0.965056
C       0.381086    3.182899   -1.076133
C       1.188197    2.479157    0.005899
C       0.320321    2.283500    1.240483
C      -0.616456    3.275274    1.691222
N      -1.362987    4.082581    2.049469
H      -0.037973   -2.229955   -0.038714
H       0.845611    3.125813   -2.064636
H       0.032100    4.198683   -0.869987
H       2.260210    2.345577    0.040207
H       0.812740    1.727069    2.031636
