21

C      -0.119372    1.525893   -0.190621
C      -0.030361    0.018421   -0.029237
C      -1.289221   -0.708445   -0.471659
C       1.292420   -0.674602   -0.268499
C       0.719107   -0.604197    1.130479
C       1.387263    0.144476    2.283456
N       1.987136   -0.840880    3.196100
C       2.379054    1.150120    1.843698
N       3.202279    1.907797    1.549037
H       0.807428    2.038371    0.073125
H      -0.348896    1.778148   -1.232261
H      -0.924608    1.939716    0.428524
H      -1.499662   -0.510990   -1.529209
H      -1.194653   -1.791440   -0.346282
H      -2.160251   -0.378531    0.106686
H       1.299829   -1.635220   -0.773040
H       2.151951   -0.048469   -0.486078
H       0.285551   -1.521481    1.518399
H       0.618897    0.681985    2.854157
H       2.713835   -1.353218    2.702358
H       2.444291   -0.365203    3.969128
