14

C      -0.023335    1.445958    0.026128
N       0.038144   -0.000723   -0.064063
C       0.617418   -0.666280   -1.076664
N       1.178158    0.047473   -2.073919
C       1.723652   -0.696234   -3.026170
N       1.763977   -2.030131   -3.080460
C       1.174593   -2.594833   -2.034197
F       1.177091   -3.910594   -2.022859
N       0.590913   -2.016997   -1.012923
H       0.978588    1.884846    0.049774
H      -0.558940    1.873902   -0.826485
H      -0.548904    1.710201    0.945093
H      -0.367529   -0.571886    0.658400
H       2.189239   -0.164815   -3.853550
