19

C      -0.600846    1.084665    0.552582
C      -0.179834   -0.332111    0.158472
C       0.587113   -0.393717   -1.163151
C       0.991338   -1.824629   -1.543555
O      -0.147343   -2.628891   -1.782204
O      -0.273614    0.122968   -2.184983
C       0.394235    0.697079   -3.289017
H       0.270412    1.735752    0.690019
H      -1.232102    1.528201   -0.221337
H      -1.162398    1.080196    1.491600
H       0.458697   -0.768263    0.936399
H      -1.055213   -0.984391    0.074753
H       1.491184    0.233638   -1.094622
H       1.653447   -1.802286   -2.424907
H       1.555413   -2.287238   -0.726323
H      -0.736791   -2.082751   -2.318292
H       1.026871    1.541937   -2.979071
H       1.024362   -0.025596   -3.827004
H      -0.374194    1.064701   -3.973811
