12

N       0.069502    1.308924   -0.134797
C      -0.018724   -0.019412   -0.017948
C      -1.171529   -0.739887    0.120211
N      -1.117533   -2.104548    0.230457
N      -0.157954   -2.827922    0.225904
O       1.268677   -2.051788    0.064598
C       1.292559   -0.734079   -0.047037
N       2.341569   -0.013365   -0.178231
H       1.003229    1.685771   -0.229455
H      -0.738416    1.905924   -0.129967
H      -2.160639   -0.305447    0.150887
H       3.181971   -0.590010   -0.186982
