22

C      -0.364802    1.443830    0.056521
C       0.075788   -0.028942   -0.078144
C       0.902656   -0.209119   -1.280937
N       1.562730   -0.347896   -2.219922
C       0.807172   -0.561887    1.161764
C       2.094874    0.163198    1.511893
C      -0.054788   -1.060740    2.301913
C       0.745626   -2.043884    1.477998
C       0.071364   -3.080877    0.603959
H       0.495143    2.112349    0.136239
H      -0.952286    1.751795   -0.811967
H      -0.978922    1.558648    0.953745
H      -0.825521   -0.631243   -0.231542
H       1.916876    1.211141    1.775699
H       2.578218   -0.310754    2.370829
H       2.801958    0.140380    0.675430
H       0.257173   -0.838126    3.316966
H      -1.132471   -1.060587    2.163267
H       1.648051   -2.416335    1.956989
H      -0.892914   -2.740114    0.216128
H       0.698490   -3.353693   -0.251362
H      -0.122386   -3.991598    1.180732
