16

N      -0.133148    1.320863    0.009451
C      -0.048416    0.063324    0.002422
O      -1.172255   -0.684777    0.009422
C      -0.989928   -2.096421    0.000038
C      -2.389769   -2.717252    0.009555
C      -2.354109   -4.170054    0.001568
C      -2.317184   -5.377239   -0.005379
C      -2.245541   -6.816403   -0.013900
O      -3.206791   -7.549905   -0.008310
H       0.797171    1.733736    0.002656
H       0.875223   -0.532058   -0.009353
H      -0.440902   -2.411118   -0.896412
H      -0.424632   -2.420807    0.882822
H      -2.932328   -2.361733    0.893775
H      -2.948384   -2.352475   -0.860784
H      -1.211659   -7.217773   -0.026560
