18

C      -0.065700    1.560220   -0.038985
C       1.481544    1.443853    0.014211
C       1.303080    0.122785    0.846166
C       2.275740   -0.917943    0.304447
C       2.819256   -0.424110   -0.984788
C       1.847598    0.728188   -1.300968
C       0.724391   -0.372752   -1.287318
C      -0.013581    0.009844   -0.000278
N       1.738026   -1.464374   -0.981698
H      -0.483864    1.984181    0.877397
H      -0.521228    2.043543   -0.908853
H       2.119442    2.262149    0.351326
H       1.197289    0.220905    1.924564
H       2.804169   -1.628102    0.928510
H       3.808836   -0.614277   -1.386229
H       2.000202    1.332980   -2.192394
H       0.142716   -0.574092   -2.184932
H      -0.859460   -0.603495    0.309849
