17

C      -0.009023    1.517143   -0.011898
C       1.432078    2.040990    0.060594
O       2.106405    1.666587    1.265622
C       1.926119    0.354009    1.549664
C       0.977913   -0.458810    0.982817
C      -0.049996   -0.028799   -0.006540
N       1.185770   -1.685521    1.593132
C       2.218532   -1.529793    2.468414
N       2.692825   -0.299837    2.466421
H      -0.563619    1.901168    0.851159
H      -0.486144    1.915166   -0.912960
H       2.008280    1.667489   -0.799509
H       1.451615    3.132957    0.040227
H      -1.056601   -0.374521    0.261462
H       0.153790   -0.420790   -1.013466
H       0.672860   -2.533518    1.420860
H       2.585703   -2.342410    3.076519
