15

O      -0.270821    0.004552    0.122691
C      -0.145328    1.193938    0.034363
N      -1.026109    2.242410   -0.050186
C      -0.019387    3.307623   -0.111650
C       1.057952    2.188646    0.017164
C       2.048075    2.163406    1.205736
N       3.383109    2.142187    0.587355
C       3.179540    2.072493   -0.657953
O       1.903282    2.063547   -1.133272
H      -2.033979    2.270162   -0.023649
H       0.017294    3.842163   -1.064853
H      -0.056708    4.016251    0.722113
H       1.942231    3.033635    1.860699
H       1.913720    1.263969    1.816064
H       3.940191    2.017542   -1.427780
