13

C      -0.092840    1.523394   -0.092700
C      -0.013581    0.025330    0.050655
N       1.292992   -0.596711   -0.181197
C       0.710145   -0.639002    1.184419
C       1.378772    0.101178    2.218848
C       1.910508    0.708787    3.109878
H       0.801171    1.995257    0.319961
H      -0.175029    1.802867   -1.148223
H      -0.968719    1.916568    0.433946
H      -0.889406   -0.518057   -0.303220
H       1.187125   -1.509589   -0.616436
H       0.298741   -1.590767    1.514769
H       2.391168    1.246308    3.889322
