21

C       0.352349    1.553348   -0.133781
C       0.711239    0.071703   -0.167225
N      -0.018377   -0.615557   -1.247011
C       0.266653   -1.985906   -1.403900
C      -0.328450   -3.133964   -0.930420
C       0.397195   -4.239239   -1.465196
C       1.422407   -3.744991   -2.239135
C       2.486969   -4.440148   -3.020933
N       1.328477   -2.370576   -2.193204
H       0.572518    2.027328   -1.094740
H      -0.714638    1.695887    0.074479
H       0.913538    2.070752    0.649909
H       1.782522   -0.050039   -0.362564
H       0.519612   -0.389054    0.816065
H      -1.015525   -0.486609   -1.117799
H      -1.181387   -3.173766   -0.269610
H       0.198054   -5.286653   -1.292690
H       2.443898   -4.201203   -4.091650
H       3.495791   -4.183464   -2.672262
H       2.370323   -5.521994   -2.921928
H       1.884397   -1.722859   -2.725264
