17

C      -0.034923    1.596797    0.058978
C       1.504809    1.410885   -0.012201
C       1.793401    0.766920    1.360806
C       0.982215   -0.515713    1.078057
C       1.786870   -1.128518   -0.099821
C       1.251614    0.088208   -0.866974
C      -0.045529    0.063063    0.004287
H      -0.451028    2.121146    0.926183
H      -0.450260    2.019245   -0.861204
H       2.163294    2.206599   -0.359842
H       2.850749    0.555591    1.546421
H       1.409804    1.369518    2.189557
H       0.655137   -1.118962    1.924656
H       2.865597   -1.268057    0.030594
H       1.339050   -2.052238   -0.479165
H       1.244081    0.180496   -1.952766
H      -0.919610   -0.541218   -0.237257
