22

C      -1.155121    1.234281   -1.185091
O      -0.914139   -0.150277   -1.159402
C       0.381876   -0.473566   -0.688532
C       0.532888   -1.980187   -0.759556
C       0.726500   -2.601146   -2.148983
N       2.016605   -2.079430   -2.664383
C       2.004402   -3.238135   -1.737682
C       1.897638   -2.660256   -0.317083
C       3.055455   -1.810059    0.191637
H      -1.082271    1.682652   -0.180617
H      -0.447520    1.762447   -1.844153
H      -2.169475    1.385591   -1.563718
H       1.149039    0.015623   -1.306166
H       0.509335   -0.119320    0.349506
H      -0.308798   -2.442645   -0.236721
H      -0.040407   -2.948964   -2.829456
H       2.133751   -2.448990   -3.606983
H       2.441515   -4.184430   -2.034269
H       1.676074   -3.458999    0.397336
H       3.343161   -1.060420   -0.549382
H       2.797104   -1.297282    1.124357
H       3.930726   -2.437676    0.394081
