16

C       0.066367    1.441172   -0.017762
N       1.278787    0.580156   -0.000866
C      -0.041141   -0.027576   -0.010600
C      -0.654289   -0.918120    1.040806
C      -1.693338   -1.375195    0.082311
C      -0.711252   -0.915473   -1.068877
C      -0.012159   -2.265367   -0.822615
N      -0.657517   -2.340316    0.534225
H      -0.094115    2.013536    0.892169
H      -0.185571    1.970870   -0.933525
H       1.698233    0.545180   -0.927936
H      -0.704705   -0.785289    2.112754
H      -2.761997   -1.518702    0.162895
H      -0.954832   -0.533131   -2.058883
H      -0.408109   -3.081512   -1.431723
H       1.083730   -2.289040   -0.823764
