18

C       0.846382    0.750548    0.801919
C      -0.246497    0.069347    0.010435
O      -1.416275    0.141712    0.326843
C       0.143632   -0.752244   -1.203656
C       1.454411   -0.454002   -1.921237
C       1.387834    0.891921   -2.617914
O       2.008316    1.867020   -2.273470
C      -0.399471   -2.152751   -1.177821
N      -0.974651   -1.156817   -2.070887
H       1.574940    0.011100    1.154691
H       1.394467    1.461144    0.174319
H       0.404724    1.266155    1.654840
H       2.303741   -0.460442   -1.233468
H       1.607281   -1.227392   -2.681840
H       0.684220    0.930126   -3.476530
H       0.176147   -2.941070   -1.656213
H      -0.964868   -2.448907   -0.298966
H      -1.825747   -0.791457   -1.640680
