16

O       0.100241    0.036156    0.476232
C       0.046234    1.179704    0.096273
N       1.073581    1.858655   -0.536432
C       1.703046    3.068227   -0.034154
C       2.460393    1.757236   -0.141809
C       3.324085    2.360836   -1.290388
O       2.867504    2.134214   -2.629311
C       2.109451    3.374131   -2.630427
C       2.539983    3.689560   -1.180261
H      -0.871295    1.796637    0.146020
H       1.314790    3.563836    0.847994
H       2.742834    1.045075    0.623612
H       4.405283    2.267056   -1.164958
H       2.501451    4.071412   -3.379100
H       1.041738    3.202351   -2.793782
H       3.020900    4.640356   -0.960987
