15

C      -0.041671    1.550592    0.070232
C       0.011519    0.022552    0.009419
C       1.108373   -0.630389   -0.938942
C       1.740326   -1.269379    0.300736
O       2.073194   -0.204183    1.203972
C       0.735604   -0.685493    1.197398
C      -1.306188   -0.557077   -0.224968
N      -2.351175   -1.022364   -0.395032
H       0.951578    1.929187    0.319952
H      -0.349005    1.966228   -0.893394
H      -0.752413    1.888542    0.829744
H       0.678125   -1.350871   -1.635775
H       1.740901    0.080573   -1.474602
H       2.311021   -2.185849    0.382279
H       0.301880   -1.024365    2.130582
