16

C      -0.727877    1.195209    0.253517
C       0.324489    0.132901    0.026969
O       1.183942   -0.131611    0.835180
C       0.286314   -0.618917   -1.291807
C       1.628979   -0.972382   -1.896801
O       2.242516    0.177474   -2.449359
C      -0.917196   -1.413224   -1.610290
O      -0.686294   -0.163675   -2.251340
H      -0.547515    2.028433   -0.435026
H      -1.733569    0.827456    0.031337
H      -0.668795    1.548590    1.283220
H       2.291226   -1.337693   -1.108909
H       1.498345   -1.764347   -2.648646
H       1.640065    0.516527   -3.121556
H      -0.810854   -2.295860   -2.238891
H      -1.753934   -1.436638   -0.913827
