21

C       0.072340    1.548011   -0.049393
C       0.005516    0.031537    0.140115
O       0.550151   -0.362540    1.392031
C      -1.428603   -0.513561   -0.001293
C      -1.462983   -2.040902   -0.037417
O      -2.126125    0.009339    1.133301
C      -3.537324   -0.007442    1.036176
C      -4.114316    0.686181    2.180754
C      -4.612214    1.250612    3.116316
H       1.092551    1.898330    0.125928
H      -0.223161    1.833459   -1.065172
H      -0.597111    2.049361    0.655709
H       0.628666   -0.457696   -0.618087
H      -0.094189   -0.090426    2.057729
H      -1.878347   -0.104381   -0.920820
H      -0.958975   -2.406838   -0.937822
H      -0.943993   -2.441047    0.836712
H      -2.486094   -2.427121   -0.053540
H      -3.860645    0.483591    0.102967
H      -3.923863   -1.037807    1.003347
H      -5.048839    1.751729    3.944658
