18

C      -0.633696    1.396393   -1.185119
O      -0.702874   -0.029396   -1.097784
C      -1.490426   -0.519896   -0.118775
N      -2.143371    0.227317    0.663625
C      -1.407499   -2.042909   -0.138021
C      -2.678052   -2.743413    0.300609
O      -3.295593   -2.434525    1.299486
C      -3.178137   -3.891471   -0.557129
O      -4.310914   -4.491733   -0.013322
H       0.046964    1.608148   -2.010536
H      -1.622562    1.819192   -1.381380
H      -0.255791    1.822808   -0.252072
H      -2.675190   -0.332700    1.327902
H      -1.099563   -2.378413   -1.131122
H      -0.615265   -2.346874    0.559352
H      -3.372131   -3.486077   -1.566563
H      -2.356000   -4.617395   -0.676438
H      -4.525815   -3.968011    0.774826
