23

C      -0.038790    1.572488    0.005518
C       0.049004    0.045027    0.018154
C       0.796901   -0.553192   -1.197392
C       1.319058   -1.932409   -0.730791
C       2.538331   -2.424825   -1.497937
O       2.172677   -2.563082   -2.865453
C       1.547031   -1.761758    0.768385
C       2.278387   -0.522238    1.234595
C       0.768977   -0.550408    1.226206
H       0.960216    2.021909    0.031236
H      -0.545563    1.933302   -0.896147
H      -0.594277    1.947414    0.871895
H      -0.973561   -0.358479    0.024433
H       0.165116   -0.628106   -2.084585
H       1.640349    0.091686   -1.474136
H       0.523851   -2.677398   -0.869818
H       3.363988   -1.704718   -1.377356
H       2.878728   -3.386362   -1.079941
H       2.947682   -2.849565   -3.356979
H       1.610365   -2.652926    1.384253
H       2.767013   -0.575210    2.201379
H       2.807524    0.092203    0.513478
H       0.255630   -0.546399    2.182355
