20

C       0.115991    1.470656   -0.223833
C      -0.065410   -0.029335    0.033170
C      -1.521819   -0.498280    0.131954
C      -2.278197    0.152284    1.292985
C      -2.335465   -0.432247   -1.211413
C      -2.674999   -1.917129   -1.027156
O      -3.453071   -2.660548   -1.551120
C      -1.689257   -2.059758    0.139692
H       1.174605    1.715827   -0.352508
H      -0.409114    1.785273   -1.132565
H      -0.262685    2.076030    0.605133
H       0.425098   -0.590882   -0.773013
H       0.458122   -0.308505    0.957617
H      -2.357846    1.236551    1.168331
H      -3.297229   -0.242969    1.369032
H      -1.774987   -0.042465    2.246819
H      -3.187051    0.252048   -1.261316
H      -1.710037   -0.270912   -2.096893
H      -0.783480   -2.599711   -0.158712
H      -2.084838   -2.523005    1.048072
