12

N      -0.069764    1.253225   -0.407383
C      -0.046008    0.086969    0.064578
O       1.129273   -0.454799    0.557343
C       1.240146   -1.718609    1.090727
O       2.308955   -2.083390    1.489273
C       0.018407   -2.546018    1.134853
C      -1.161926   -2.110966    0.683048
C      -1.307301   -0.761769    0.107684
O      -2.360878   -0.342655   -0.308376
H       0.858063    1.681157   -0.360484
H       0.161444   -3.531343    1.563343
H      -2.061358   -2.716590    0.714336
