12

N       0.105557    1.296782   -0.082100
C      -0.036084   -0.042508   -0.030997
N      -1.158065   -0.647880   -0.004580
C      -1.166390   -2.056196    0.001467
O      -2.191157   -2.683875    0.016141
N       0.093436   -2.720745   -0.005653
C       1.139611   -2.005449   -0.023269
O       2.375427   -2.488838   -0.028363
O       1.203269   -0.651862   -0.039754
H       1.006948    1.708140    0.088141
H      -0.724043    1.849014    0.052667
H       2.285116   -3.453154   -0.016892
