15

O       0.178007    1.341625   -0.220738
C       0.075994    0.040627    0.301022
C      -1.358205   -0.493650    0.135975
O      -1.708760   -0.465201   -1.289095
C      -1.805669   -1.900384   -1.408880
C      -1.465921   -2.047554    0.074797
O      -1.324630   -2.936942    0.849787
C      -2.333275    0.175993    0.970370
C      -3.147045    0.691573    1.688632
H      -0.157329    1.301246   -1.125216
H       0.767861   -0.657476   -0.196695
H       0.335729    0.083580    1.361814
H      -2.812563   -2.234676   -1.686629
H      -1.072986   -2.328119   -2.103628
H      -3.860941    1.162129    2.319284
