19

O      -0.125694    1.537567    0.022153
C       0.003106    0.137437    0.039372
C       0.161319   -0.609154    1.382530
C      -1.055797    0.019516    2.158562
C      -2.197753    0.017846    1.050983
C      -1.339434   -0.677197    0.011876
O      -1.593342   -1.437355   -1.169932
C      -0.560896   -2.381810   -0.718317
C      -0.594356   -1.802322    0.733584
H       0.753859    1.926774    0.030722
H       0.693194   -0.207108   -0.735193
H       1.102685   -0.676885    1.930767
H      -1.332533   -0.580366    3.029175
H      -0.823113    1.032746    2.488280
H      -3.067183   -0.574457    1.344049
H      -2.512627    1.027752    0.783996
H      -0.925021   -3.409770   -0.790381
H       0.362224   -2.281172   -1.297487
H      -1.151259   -2.443962    1.417858
