19

C       0.471649    1.103175    0.571950
N      -0.349397    0.334943   -0.356983
C       0.386543   -0.293066   -1.415821
C       1.217757   -1.584631   -1.168562
N       0.235922   -2.563286   -0.678828
C       0.415578   -2.379025   -2.166127
C       0.756474   -3.513078   -3.079071
C      -0.407673   -1.143199   -2.469776
O      -1.211294   -0.872750   -3.312288
H       1.272128    0.523780    1.064066
H       0.943689    1.935200    0.037064
H      -0.165962    1.528948    1.352026
H      -0.870221   -0.379690    0.141678
H       0.972272    0.460065   -1.958474
H       2.275980   -1.680763   -0.959023
H       0.731144   -3.424664   -0.445771
H       1.569795   -4.121497   -2.669119
H      -0.110366   -4.164063   -3.234014
H       1.070014   -3.139698   -4.058817
