16

O      -0.061109    1.474316   -0.044035
C      -0.033443    0.062824    0.022900
C      -1.381963   -0.602204   -0.083009
C      -2.125414   -0.717801   -1.419087
C      -1.190906   -0.509992   -2.602926
N      -0.155770   -1.418821   -1.919553
C      -1.217972   -1.820970   -0.942918
C       0.696497   -0.489088   -1.226958
O       1.740304   -0.064142   -1.638850
H       0.825201    1.749219   -0.315106
H       0.468774   -0.278868    0.943566
H      -2.016574   -0.671232    0.792516
H      -3.207547   -0.690206   -1.441030
H      -1.539348   -0.991087   -3.519269
H      -0.836123    0.500792   -2.825128
H      -1.375271   -2.857724   -0.678752
