15

C       0.214430    1.417878    0.135514
N       0.201965   -0.035355    0.101800
C       0.390947   -0.607599   -1.017566
O       0.607583    0.079240   -2.175231
N       0.808298   -0.601250   -3.405650
C       0.729703   -1.891792   -3.350038
N       0.801490   -2.607026   -4.517521
N       0.548710   -2.698896   -2.216511
C       0.394082   -2.061009   -1.117594
H       1.180902    1.821533   -0.195501
H      -0.549098    1.846080   -0.527827
H       0.023985    1.754368    1.156485
H       1.144035   -2.106544   -5.323058
H       1.128781   -3.554292   -4.411168
H       0.256908   -2.608233   -0.187415
