15

C       0.005028    1.421257    0.016165
C       1.512899    1.875875   -0.019034
N       2.159362    0.582149    0.147675
C       3.405918    0.000766    0.013996
N       3.412529   -1.278417   -0.079088
C       1.994330   -1.706559   -0.049488
C       1.200717   -0.420875    0.004742
N      -0.013556   -0.055921   -0.093338
H      -0.474324    1.721642    0.955251
H      -0.572931    1.867090   -0.798225
H       1.784703    2.339888   -0.975083
H       1.765679    2.570092    0.786727
H       4.302936    0.610788    0.020326
H       1.752971   -2.307419   -0.931678
H       1.810562   -2.336673    0.828556
