14

C      -0.010223    1.519981    0.011112
C      -0.001381    0.013346    0.013426
C      -0.090646   -0.718673   -1.173822
N      -0.088254   -2.051919   -1.241695
C       0.005409   -2.735094   -0.102685
C       0.098572   -2.094614    1.127718
F       0.190699   -2.822650    2.243733
C       0.096413   -0.713451    1.201973
H       0.906638    1.924330    0.453775
H      -0.092845    1.911564   -1.005820
H      -0.850689    1.914255    0.592700
H      -0.168461   -0.193080   -2.123120
H       0.007821   -3.820487   -0.152606
H       0.169629   -0.224677    2.167973
