21

C       0.946987    1.569285    0.072203
C       1.336757    0.227018   -0.471844
C      -0.079528    0.447033    0.038107
C      -0.516552   -0.173169    1.255425
C      -0.883774   -0.695117    2.280156
C      -1.353305   -1.324334    3.497030
C      -2.626969   -0.764105    4.213827
C      -3.037581   -2.223688    4.540718
C      -2.081834   -2.707440    3.418955
H       1.328502    1.855804    1.044836
H       0.808381    2.390941   -0.621538
H       1.468266    0.118510   -1.542609
H       1.983404   -0.399404    0.130738
H      -0.842416    0.537002   -0.730313
H      -0.533312   -1.390773    4.221769
H      -2.468259   -0.069989    5.042083
H      -3.303549   -0.303234    3.489834
H      -2.688854   -2.530973    5.531095
H      -4.094330   -2.483160    4.450358
H      -2.598783   -2.815687    2.462201
H      -1.478063   -3.599790    3.598288
