18

C      -0.032414    1.720651    1.067739
C       0.040383    0.263807    1.516702
C       1.278601   -0.447415    1.023103
O       2.153083    0.065685    0.374860
C       1.399077   -1.960850    1.380316
O       0.835146   -2.183279    2.645912
C       1.037243   -3.496235    3.150436
C       0.724375   -2.751316    0.327427
N       0.171352   -3.364155   -0.481751
H      -0.039479    1.795825   -0.022614
H      -0.939530    2.193185    1.453262
H       0.831428    2.284640    1.428515
H       0.023057    0.167706    2.609010
H      -0.829785   -0.314026    1.175673
H       2.470966   -2.205400    1.356557
H       0.553680   -4.249166    2.515077
H       2.108363   -3.728962    3.229987
H       0.588249   -3.519271    4.144551
