18

C      -0.104121    1.501682    0.007414
C       0.041989    0.003755    0.000174
N      -0.485770   -0.807879    1.110329
C       0.987273   -0.743121    0.874626
C       1.547376   -1.906633    0.077479
O       2.503973   -2.568163    0.399782
C       0.855678   -1.951765   -1.261011
C      -0.659385   -2.093691   -1.343981
C      -0.044303   -0.729874   -1.346908
H       0.606052    1.968693   -0.683211
H      -1.113326    1.798533   -0.300303
H       0.080259    1.910302    1.006274
H      -0.700174   -0.202409    1.901040
H       1.624028   -0.283805    1.622967
H       1.448099   -2.316391   -2.091330
H      -1.028967   -2.478078   -2.288425
H      -1.206575   -2.404817   -0.464803
H      -0.075134   -0.120105   -2.242268
