17

O      -0.057124    1.496929   -0.066433
C      -0.072740    0.164374    0.415384
C      -1.339927   -0.566432   -0.001578
N      -1.468297   -0.719457   -1.479625
C      -1.685809   -2.112585   -1.413120
N      -2.024453   -3.028050   -2.210438
C      -1.365237   -2.107249    0.065926
C      -0.625282   -3.071054    0.882903
O      -2.036552   -2.870385    1.036245
H       0.016479    1.443316   -1.025659
H       0.804540   -0.400197    0.065809
H      -0.022369    0.227491    1.507698
H      -2.223906   -0.117776    0.464772
H      -2.049830   -0.112081   -2.041601
H      -2.212430   -2.671656   -3.149173
H      -0.336551   -4.022323    0.440838
H      -0.011695   -2.719855    1.711000
