19

O       0.072064    1.448539   -0.152442
C       0.098928    0.025226    0.013590
C       0.785573   -0.359550    1.297315
C       0.150703   -0.895881    2.340845
C      -1.324744   -1.196601    2.359065
C      -2.075984   -0.461771    1.242696
C      -1.319098   -0.582614   -0.081170
C      -2.058304    0.034912   -1.252607
O      -3.182011    0.464230   -1.202895
H      -0.216120    1.832293    0.682941
H       0.691219   -0.326911   -0.839899
H       1.849013   -0.141154    1.349845
H       0.714438   -1.144237    3.237559
H      -1.472048   -2.283229    2.263032
H      -1.742926   -0.933922    3.338254
H      -3.094692   -0.840538    1.131930
H      -2.176585    0.600498    1.498154
H      -1.190964   -1.649376   -0.331318
H      -1.479684    0.050898   -2.204032
