23

C      -0.397018    1.877361    0.121169
C      -0.030927    0.396219    0.038521
C      -1.255918   -0.489176   -0.246379
C      -2.003378   -0.174627   -1.538560
O      -2.985551   -1.186809   -1.714831
C       1.196664    0.046928   -0.870135
C       1.732694   -0.874451    0.255770
O       3.112713   -0.927219    0.519453
C       0.783628   -0.160726    1.252622
H       0.471691    2.477749    0.411364
H      -0.754411    2.265212   -0.839001
H      -1.184695    2.050626    0.864279
H      -0.953782   -1.542165   -0.294309
H      -1.961631   -0.410613    0.590553
H      -2.471637    0.819398   -1.479823
H      -1.299699   -0.153406   -2.386705
H      -3.485762   -0.984212   -2.510627
H       1.009762   -0.398787   -1.850655
H       1.850577    0.916521   -1.004314
H       1.434156   -1.913667    0.095224
H       3.419008   -0.027668    0.676285
H       1.309000    0.642917    1.781900
H       0.253537   -0.773188    1.987245
