17

C       0.003124    1.569777    0.010743
C       0.010942    0.030459    0.053149
C       0.782908   -0.512027    1.270187
O      -1.345100   -0.492399    0.028583
C      -2.182722   -0.193723    1.039511
N      -3.362908   -0.644636    1.022168
C       0.621971   -0.484815   -1.176954
C       1.165047   -0.882752   -2.170755
H       1.024402    1.940626   -0.105538
H      -0.593254    1.915922   -0.836059
H      -0.408925    1.989627    0.932486
H       0.379030   -0.114251    2.205244
H       0.724611   -1.602286    1.292307
H       1.833345   -0.218994    1.201109
H      -1.752684    0.439699    1.823078
H      -3.863220   -0.330795    1.851385
H       1.631439   -1.243212   -3.054461
