23

C      -0.604905    1.410237    0.167752
C       0.000256    0.020811   -0.009924
C      -1.051793   -0.939653   -0.577814
C       1.329530   -0.059177   -0.820766
C       1.922451   -1.020144    0.238558
C       0.807852   -0.607647    1.232979
C       1.263316    0.409256    2.283690
C       0.086417   -1.735083    1.929181
O       0.263040   -2.910684    1.725229
H       0.117004    2.135665    0.551586
H      -0.962085    1.784186   -0.799039
H      -1.464484    1.394460    0.847927
H      -1.393585   -0.577259   -1.553705
H      -0.656596   -1.949997   -0.713716
H      -1.929641   -1.011262    0.074280
H       1.244218   -0.436166   -1.843639
H       1.850044    0.902478   -0.851897
H       1.837345   -2.073919   -0.032901
H       2.946740   -0.825542    0.565366
H       1.792862    1.247889    1.823919
H       0.420352    0.815494    2.853203
H       1.952270   -0.061689    2.994108
H      -0.670475   -1.400863    2.679061
