23

C       0.163279    1.284079   -0.196720
O       0.018445   -0.077262    0.131091
C      -1.321736   -0.542925    0.117733
C      -1.917656   -0.643396   -1.311392
C      -2.994233   -1.738944   -1.389958
C      -3.732970   -1.895288   -0.025357
C      -2.517258   -2.770055    0.409191
C      -2.346545   -3.118699   -1.094328
C      -1.342310   -1.891641    0.864420
H       1.218011    1.538563   -0.063292
H      -0.117742    1.501242   -1.237836
H      -0.441377    1.927972    0.462564
H      -1.939462    0.171759    0.685372
H      -2.335936    0.325478   -1.607243
H      -1.108187   -0.872260   -2.015741
H      -3.600292   -1.640201   -2.293997
H      -3.976008   -0.999364    0.553170
H      -4.636296   -2.501342   -0.134362
H      -2.697864   -3.590163    1.108327
H      -2.996650   -3.944831   -1.396343
H      -1.333046   -3.299232   -1.466544
H      -0.394602   -2.408018    0.673213
H      -1.385738   -1.700868    1.942260
