16

C      -0.099531    1.536296    0.078321
C       0.080402    0.026386   -0.016324
N       0.722043   -0.486652    1.198054
C       0.845134   -1.839280    1.341944
N       0.312285   -2.724589    0.553598
O       0.626691   -3.982734    1.164120
C       1.360904   -3.795388    2.294689
O       1.766443   -4.654025    3.024668
N       1.520128   -2.415305    2.389670
H       0.865693    2.048774    0.166371
H      -0.590312    1.913361   -0.822610
H      -0.710307    1.805864    0.944572
H      -0.885907   -0.477323   -0.105865
H       0.658496   -0.242800   -0.911278
H       1.533170    0.039212    1.495096
H       1.906965   -1.961723    3.198963
