16

N       0.204050    1.423329   -0.023585
C       0.065175   -0.004941   -0.020560
C       1.027890   -0.585064   -0.958514
N       1.778886   -0.994134   -1.735536
C      -0.037893   -0.630552    1.440467
N      -1.457082   -0.137212    1.398123
C      -1.415371   -0.657334   -0.009002
C      -1.075206   -2.137650    0.148587
C      -0.152478   -2.122703    1.119933
H       0.173996    1.805106   -0.962387
H      -0.540282    1.825867    0.536675
H       0.609499   -0.277223    2.241605
H      -2.068110   -0.702864    1.987999
H      -2.189298   -0.333634   -0.704433
H      -1.440280   -2.954935   -0.455987
H       0.443858   -2.921884    1.534276
