17

N      -0.100732    1.286192    0.421056
C      -0.025793    0.112145   -0.050428
C      -1.315871   -0.677932   -0.222378
O      -1.379927   -1.443115   -1.407573
C      -0.906583   -2.770589   -1.269965
C       0.532562   -2.830049   -0.731065
C       1.345087   -1.609491   -1.159873
O       1.179120   -0.465058   -0.308126
H       0.837013    1.678690    0.531268
H      -1.469303   -1.311592    0.665392
H      -2.122973    0.055450   -0.249263
H      -1.583117   -3.358471   -0.630245
H      -0.952707   -3.191108   -2.279176
H       0.551480   -2.887756    0.362704
H       1.019437   -3.740364   -1.098827
H       2.414194   -1.822338   -1.089445
H       1.116710   -1.330967   -2.194953
