21

C      -0.137187    1.641888   -0.275058
C       0.006162    0.189295    0.195481
C      -1.328416   -0.532249    0.222594
C      -1.899755   -1.214602   -0.999196
C      -1.502142   -2.035304    0.205192
C      -0.385513   -3.088412    0.184081
N      -0.865478   -4.471125    0.027949
C       0.614659   -2.853748   -0.871447
N       1.381625   -2.675438   -1.717083
H       0.830036    2.153262   -0.273375
H      -0.540637    1.686598   -1.291833
H      -0.814830    2.205517    0.376108
H       0.712035   -0.333290   -0.455557
H       0.444266    0.175748    1.202511
H      -2.064635   -0.027274    0.845838
H      -2.953092   -1.103023   -1.231583
H      -1.254553   -1.277266   -1.870580
H      -2.321377   -2.398430    0.822061
H       0.153481   -3.051371    1.140010
H      -1.473426   -4.694957    0.810702
H      -1.438379   -4.533166   -0.809978
