19

C       0.221973    1.698371    0.708500
N       0.223877    0.306061    1.109434
C       0.130374   -0.564923    0.199092
N       0.128505   -1.919267    0.521720
C       0.041830   -2.929261   -0.399347
O      -0.040364   -2.732420   -1.599679
C       0.052479   -4.360111    0.156501
C      -1.196626   -4.649475    1.003433
O       0.136640   -5.254813   -0.918609
H       1.143256    2.179272    1.056241
H       0.138034    1.848747   -0.378845
H      -0.610210    2.217656    1.197178
H       0.046174   -0.380383   -0.875387
H       0.211617   -2.138098    1.504417
H       0.946527   -4.465404    0.793457
H      -2.101582   -4.486089    0.411084
H      -1.175175   -5.695773    1.317338
H      -1.244374   -4.022386    1.899785
H       0.067866   -4.701866   -1.714563
