23

C       0.032996    1.420965   -0.508131
C      -0.113458    0.033864    0.123363
C      -1.518236   -0.593356    0.015511
C      -1.496567   -1.993408    0.649631
C      -2.582969    0.283605    0.690476
O      -1.725844   -0.706758   -1.409427
C      -2.992564   -1.117829   -1.884782
C      -3.909040   -0.009570   -2.174063
C      -4.659555    0.890727   -2.440600
H       1.079872    1.739366   -0.489765
H      -0.302999    1.405381   -1.547534
H      -0.548513    2.179010    0.025564
H       0.586982   -0.657281   -0.359856
H       0.163132    0.070336    1.183946
H      -1.237211   -1.928660    1.711021
H      -2.471024   -2.487786    0.585098
H      -0.756311   -2.625014    0.150195
H      -2.670737    1.253860    0.198906
H      -3.568203   -0.191061    0.671241
H      -2.315980    0.446179    1.739772
H      -2.802520   -1.666716   -2.815410
H      -3.479841   -1.826330   -1.201332
H      -5.323764    1.687114   -2.669447
