19

C       0.036867    1.484640   -0.203461
C      -0.027704   -0.049409   -0.030009
N       0.747337   -0.587711    1.097516
C       2.179964   -0.344502    1.044470
C       2.882168   -1.245769    2.079213
C       4.331921   -1.070362    2.074971
N       5.477033   -0.917147    2.053723
C      -1.419536   -0.486609    0.101021
C      -2.571166   -0.806301    0.223587
H       1.067054    1.815102   -0.362858
H      -0.559583    1.797377   -1.064818
H      -0.359730    1.986115    0.684971
H       0.390568   -0.510699   -0.936093
H       0.354609   -0.241149    1.967843
H       2.536367   -0.610689    0.042968
H       2.479690    0.701299    1.219435
H       2.507007   -1.023471    3.085389
H       2.637389   -2.292443    1.873904
H      -3.585248   -1.106035    0.322315
