25

C      -0.204818    1.578211   -0.040386
C       0.002497    0.079785    0.024412
C       1.313109   -0.601691   -0.320359
C       2.585523    0.137081   -0.696915
C       3.839868   -0.449263   -0.020599
C       4.039523   -0.025165    1.444841
C       2.967506   -0.463238    2.457811
C       1.564029    0.120770    2.205258
C       0.810557   -0.609631    1.107355
H       0.674023    2.146221    0.273651
H      -0.447041    1.892677   -1.061886
H      -1.036439    1.883154    0.604931
H      -0.881078   -0.471864   -0.289645
H       1.212557   -1.549331   -0.845720
H       2.705429    0.093665   -1.786651
H       2.515188    1.202598   -0.450511
H       3.808841   -1.545411   -0.088606
H       4.727406   -0.135179   -0.584351
H       5.009819   -0.409839    1.784202
H       4.123885    1.070847    1.480716
H       2.904570   -1.559895    2.480365
H       3.305178   -0.157994    3.456306
H       0.975113    0.065994    3.129360
H       1.659826    1.188953    1.979874
H       0.406314   -1.562051    1.444430
