19

C       0.068453    1.505596    0.088028
C       0.010641   -0.029922   -0.013619
C      -1.437727   -0.572956   -0.006676
N      -2.085566   -0.266311    1.262280
C      -3.508669   -0.568442    1.299746
C      -4.148488    0.017819    2.548528
O      -5.090845   -0.464292    3.117957
C       0.708404   -0.505677   -1.211794
N       1.245563   -0.876907   -2.165395
H       1.100255    1.854197    0.171921
H      -0.377117    1.965474   -0.798721
H      -0.494345    1.824985    0.966614
H       0.535991   -0.461430    0.849928
H      -2.003698   -0.081803   -0.806952
H      -1.422861   -1.649772   -0.242717
H      -1.613885   -0.767676    2.009709
H      -3.986516   -0.068017    0.443984
H      -3.771025   -1.636174    1.231639
H      -3.665548    0.960954    2.891038
