19

C      -0.059603    1.555319    0.049195
C       0.108910    0.069324   -0.002558
N      -0.822030   -0.857469    0.702897
C       0.637589   -0.912865    0.987566
C       1.259990   -1.777871   -0.116691
C       0.698393   -0.758381   -1.138422
C       0.122254   -1.004146   -2.496749
C       1.415382   -0.229316   -2.344056
H       0.848698    2.067442   -0.285316
H      -0.886513    1.887486   -0.590474
H      -0.276093    1.888770    1.070032
H      -1.244035   -0.320333    1.462280
H       1.010690   -0.753350    1.992374
H       2.353120   -1.790250   -0.089857
H       0.876323   -2.799984   -0.178333
H       0.174631   -2.011611   -2.896579
H      -0.771558   -0.459129   -2.782799
H       1.392450    0.839766   -2.532473
H       2.342943   -0.710158   -2.639301
