15

O      -0.033392    0.021278   -0.431403
C       0.003241    1.165777   -0.088281
O      -1.124332    1.891330    0.185404
C      -0.786253    3.217248    0.645106
O      -0.826425    3.251824    2.036792
C       0.388029    2.652129    2.516328
C       1.396302    2.812899    1.381577
C       0.681084    3.454516    0.237846
C       1.200208    2.058015    0.062406
H      -1.534798    3.901626    0.250683
H       0.700101    3.196318    3.411873
H       0.210276    1.604653    2.787661
H       2.417499    3.078423    1.625508
H       0.999775    4.326714   -0.315394
H       2.076437    1.807897   -0.520282
