15

O      -0.009324    1.417554   -0.037791
C       0.015329    0.048803    0.057997
C      -0.313811   -0.866726   -1.113201
C      -1.208183   -0.915586    0.088250
C      -0.528856   -1.738976    1.159973
C      -1.072271   -2.479917    2.298991
O      -0.445224   -3.151158    1.198942
C       0.652035   -0.752729    1.171558
O       1.584407   -0.580339    1.902396
H       0.738466    1.705241   -0.573214
H      -0.713083   -0.320416   -1.962470
H       0.315090   -1.714136   -1.367657
H      -2.251103   -0.630852    0.063599
H      -0.516072   -2.494449    3.234483
H      -2.149327   -2.618488    2.379927
