23

C       0.032325    1.560952   -0.059937
C       0.006710    0.043067    0.149706
C      -1.389178   -0.555970   -0.001223
C      -2.052798   -0.608818   -1.425797
C      -2.228058   -2.119971   -1.247488
O      -3.365578   -2.824039   -1.609944
C      -0.897490   -2.786052   -1.035165
C      -1.576753   -2.081508    0.128244
C      -1.939673   -2.794143    1.399154
H       1.043487    1.963269    0.057117
H      -0.318254    1.829634   -1.062431
H      -0.614903    2.070942    0.662494
H       0.695579   -0.434126   -0.558461
H       0.389505   -0.193846    1.151328
H      -2.069229   -0.049976    0.694881
H      -3.007096   -0.079206   -1.464189
H      -1.433433   -0.288264   -2.272085
H      -3.238489   -3.169789   -2.500225
H      -0.950052   -3.869403   -0.976478
H       0.012433   -2.405604   -1.494628
H      -1.081599   -2.874060    2.077481
H      -2.737343   -2.265201    1.933656
H      -2.295274   -3.808453    1.192058
