17

O      -0.218142    0.394643   -0.868171
C       0.079197    1.030867    0.120308
C       1.261531    1.879408    0.219927
C       2.671190    1.627614   -0.338987
C       1.876765    2.794572   -0.851018
C       2.271379    3.885107    0.177593
C       3.783290    3.700130    0.456986
C       3.370458    2.270572    0.886025
C       1.934752    2.799737    1.272816
H      -0.555930    1.000102    1.035174
H       2.968782    0.786978   -0.950207
H       1.537095    2.889986   -1.872947
H       1.786421    4.857699    0.116478
H       4.488318    3.816503   -0.371587
H       4.109853    4.298254    1.313516
H       3.978616    1.637380    1.529505
H       1.604111    3.018772    2.284967
