19

C       0.016522    1.570873    0.058602
C       1.568980    1.503132   -0.087862
C       1.499852   -0.003113    0.188006
O       2.352298   -0.931371   -0.488131
C       2.628861   -1.655693    0.733285
C       1.747248   -0.682187    1.558211
C       0.382487   -1.143991    1.997256
C      -0.580880   -0.771976    1.147060
C      -0.038609    0.003754   -0.022931
H      -0.307292    1.946753    1.031552
H      -0.514950    2.115766   -0.723738
H       1.888907    1.685268   -1.118164
H       2.178721    2.116214    0.581715
H       2.272897   -2.691284    0.687478
H       3.699305   -1.647262    0.971179
H       2.290837   -0.115396    2.319123
H       0.221028   -1.709651    2.909053
H      -1.635986   -0.989590    1.279390
H      -0.372381   -0.358584   -0.999045
