20

C      -0.556230    1.272959    0.223764
C       0.061358   -0.103562    0.079216
O       1.126810   -0.137124   -0.903922
C       2.105108   -0.533138    0.073414
C       1.039008   -0.608125    1.186622
N       1.251183    0.191151    2.361715
C       0.971654   -0.260480    3.627229
C       1.246278    0.737284    4.741415
O       0.529235   -1.372076    3.846758
H       0.194631    2.029537    0.473186
H      -1.026664    1.567754   -0.719001
H      -1.322878    1.271259    1.005535
H      -0.714597   -0.837718   -0.173788
H       2.598655   -1.476956   -0.186302
H       2.875536    0.236213    0.227213
H       0.811979   -1.613550    1.537541
H       1.606724    1.126571    2.252003
H       1.802606    1.620323    4.416008
H       0.292389    1.061045    5.168455
H       1.803319    0.231339    5.532844
