20

C      -0.406847    1.440670   -0.082085
C      -0.007760   -0.016853   -0.074426
C       0.654397   -0.749934   -1.170447
C       1.696915    0.093761   -1.896153
C       2.419641    0.237653   -0.517918
C       3.711198   -0.584334   -0.450181
C       2.665954    1.575165    0.002684
C       2.934408    2.666020    0.433049
N       1.339269   -0.581604    0.187771
H       0.217207    2.060715   -0.725386
H      -1.442263    1.519924   -0.431922
H      -0.359475    1.860664    0.927189
H      -0.722696   -0.633233    0.469830
H       0.314546   -1.724193   -1.508227
H       2.297708   -0.461596   -2.618304
H       1.335243    1.009603   -2.369412
H       4.493527   -0.118782   -1.056733
H       4.057753   -0.651109    0.583980
H       3.525395   -1.597205   -0.818187
H       3.150116    3.632884    0.816093
