21

C      -0.004475    1.517790   -0.024004
C      -0.171496    0.020992   -0.223889
O       0.952417   -0.466746   -0.933217
C       0.934814   -1.853782   -1.133212
C       0.132696   -2.428776   -2.322609
C       1.211189   -1.951514   -3.361252
C       1.329438   -3.355775   -3.985200
C       1.143625   -3.618291   -2.477339
C       2.015942   -2.376176   -2.080349
H       0.907592    1.729230    0.541455
H       0.066256    2.027795   -0.988992
H      -0.857758    1.928190    0.524379
H      -0.254780   -0.492144    0.749232
H      -1.098909   -0.192320   -0.779818
H       0.818951   -2.386560   -0.174959
H      -0.944428   -2.481297   -2.488610
H       1.248456   -0.976060   -3.843646
H       0.515238   -3.674456   -4.644451
H       2.299318   -3.625337   -4.416283
H       1.101463   -4.566635   -1.939642
H       3.099941   -2.357478   -1.961143
