18

C       0.031489    1.626074    0.163535
C      -0.059765    0.099221   -0.005176
C       0.691373   -0.608785    1.034458
C       1.318338   -1.157273    1.899883
C      -1.493664   -0.378594   -0.032696
N      -2.522875    0.320334    0.211995
C      -3.680672   -0.571907    0.046166
C      -3.065434   -1.950392   -0.312267
O      -1.645502   -1.686665   -0.372443
H       1.078533    1.937163    0.152790
H      -0.502935    2.126863   -0.646432
H      -0.420367    1.931907    1.108457
H       0.372526   -0.181148   -0.976355
H       1.870627   -1.653487    2.658965
H      -4.265150   -0.601255    0.971234
H      -4.337436   -0.185847   -0.740774
H      -3.239098   -2.716543    0.448676
H      -3.383036   -2.337436   -1.284042
