18

O       0.146323    1.462512   -0.131194
C       0.027241    0.074036    0.035596
C       0.231431   -0.577200    1.419250
C      -0.475855    0.165985    2.564197
C      -1.767276   -0.543078    2.124943
C      -2.457223    0.116441    0.912800
O      -2.612471    1.509591    0.842875
C      -1.387205   -0.527669    0.016548
N      -0.994509   -1.478684    1.174753
H       1.074708    1.671619   -0.274243
H       0.631238   -0.469874   -0.705139
H       1.191857   -1.055706    1.625074
H      -0.133789   -0.159395    3.548760
H      -0.475099    1.257679    2.513549
H      -2.399661   -0.994388    2.893161
H      -3.408497   -0.400959    0.721197
H      -3.418304    1.748209    1.311679
H      -1.727926   -0.955616   -0.927771
