18

C      -0.028679    1.507335    0.042672
C       0.016470   -0.000402   -0.040231
C       0.650933   -0.723960   -1.206734
C       0.014598   -1.964170   -1.779115
O       1.305368    0.026559   -2.179400
C       1.347100   -0.745963    0.159490
O       2.537899   -0.006799    0.172796
C       1.372694   -1.942205    0.964342
N       1.376480   -2.896573    1.619139
H       0.788892    1.966244   -0.515906
H      -0.964904    1.873666   -0.389190
H       0.014506    1.855743    1.080358
H      -0.831626   -0.511987    0.406921
H      -0.737121   -1.680061   -2.522045
H       0.768424   -2.583043   -2.273883
H      -0.471924   -2.558939   -1.002704
H       2.123708    0.359261   -1.785068
H       2.562675    0.542907    0.964486
