18

C       0.022592    1.533835   -0.148605
C       1.435106    2.119755    0.115153
C       2.461529    1.002987    0.398699
C       1.923776    0.085632    1.480893
C       0.696314   -0.402484    1.306360
C      -0.016073    0.011660    0.044033
O       0.571145   -0.657945   -1.114484
C       1.881958   -0.459213   -1.391278
N       2.772163    0.238432   -0.823967
H      -0.709401    1.976430    0.534509
H      -0.318146    1.757162   -1.164279
H       1.780006    2.698527   -0.746639
H       1.413463    2.800592    0.972363
H       3.400494    1.459521    0.721768
H       2.542903   -0.170531    2.334994
H       0.221663   -1.091059    1.996977
H      -1.047357   -0.344585    0.025175
H       2.141046   -1.041831   -2.275770
