14

C      -0.147395    1.397457    0.053099
N      -0.167559   -0.056808    0.081867
C       0.625429   -0.649394    0.869580
O       1.497452    0.012930    1.692089
N       2.427101   -0.694284    2.616472
N       2.389561   -1.917378    2.620899
C       1.548208   -2.682077    1.831234
C       0.676085   -2.111548    0.967352
O      -0.165597   -2.773216    0.173945
H       0.839771    1.784549   -0.231454
H      -0.884484    1.748437   -0.671888
H      -0.385819    1.826656    1.035058
H       1.645155   -3.753135    1.960807
H      -0.060832   -3.724297    0.307124
