17

C       0.093523    1.528846   -0.022555
C       0.048723    0.041173    0.086486
O       0.527861   -0.706896   -1.032226
C       1.211540   -1.657250   -0.173942
C       0.660224   -0.982594    1.075848
C       1.289988   -0.800303    2.330108
N       1.775366   -0.643894    3.371398
C      -0.881493   -0.793407    0.891517
N      -1.661216   -0.191818    1.926637
H       1.110900    1.873707   -0.224582
H      -0.550212    1.847936   -0.849715
H      -0.266818    2.013548    0.887887
H       0.893982   -2.689659   -0.359338
H       2.297312   -1.572201   -0.285562
H      -1.394937   -1.601193    0.373513
H      -1.833547   -0.858391    2.673849
H      -1.184838    0.597416    2.351020
