15

C      -0.023321    1.485225    0.101702
C      -0.050922   -0.027882    0.027820
O      -0.102032   -0.718421    1.053218
C      -0.018065   -0.682978   -1.244367
C      -0.038818   -2.068245   -1.437729
O      -0.091644   -2.978510   -0.477613
N       0.002144   -2.392535   -2.753565
C       0.048168   -1.227643   -3.381374
N       0.039065   -0.169475   -2.541543
H       0.887396    1.880472   -0.363179
H      -0.880624    1.916021   -0.428560
H      -0.055689    1.795474    1.146544
H      -0.111368   -2.460759    0.358878
H       0.089300   -1.108085   -4.454238
H       0.068081    0.800760   -2.804560
