21

C      -0.213072    1.362808    0.001764
C       0.058581   -0.108638   -0.002223
C       0.621085   -1.013915   -1.130185
C       0.099090   -1.914316    0.017104
C      -0.121301   -3.397450    0.045824
C      -0.816127   -3.873786    1.326545
O      -1.026389   -5.277009    1.338583
C       0.798906   -0.981537    1.043506
O      -1.103303   -1.034749    0.103785
H       0.724856    1.921630   -0.076469
H      -0.852029    1.638594   -0.842637
H      -0.715443    1.657763    0.928068
H       0.024068   -1.038257   -2.043716
H       1.697609   -0.992661   -1.321785
H      -0.730179   -3.673699   -0.825892
H       0.841818   -3.910404   -0.059429
H      -0.183662   -3.661929    2.194929
H      -1.754047   -3.317954    1.463931
H      -1.670647   -5.482632    0.653777
H       1.892212   -0.957745    1.055240
H       0.361715   -0.971540    2.043317
