20

C      -0.280185    1.348073    0.027224
C      -0.094130   -0.144208    0.087726
C      -0.817546   -1.096027   -0.873227
C      -1.070753   -1.996061    0.358959
N      -0.410446   -1.012081    1.286552
C       1.006855   -0.862218    0.817197
C       1.845382   -1.981373    0.238841
C       1.748096   -0.026291    1.824292
O       2.948799   -0.002893    1.932422
H       0.239996    1.755274   -0.847753
H      -1.342542    1.596130   -0.070719
H       0.103902    1.858809    0.912021
H      -1.735081   -0.651887   -1.265854
H      -0.243642   -1.500209   -1.711341
H      -2.124612   -2.089551    0.627367
H      -0.616767   -2.990416    0.366411
H       1.437123   -2.400957   -0.680635
H       2.843564   -1.589902    0.030145
H       1.961092   -2.790960    0.967468
H       1.089497    0.562927    2.494725
