21

C       0.053465    1.561079    0.213077
C       0.053150    0.039149    0.053292
C       0.693358   -0.672936    1.245336
C       0.688735   -2.181263    1.110444
O       0.208897   -2.807998    0.200981
O       1.308822   -2.760684    2.165044
C       1.347526   -4.202415    2.166501
C       2.103379   -4.604354    3.419793
O       1.454556   -4.167554    4.597417
H       1.072297    1.953252    0.308680
H      -0.409498    2.047159   -0.650742
H      -0.503057    1.868832    1.105537
H      -0.970692   -0.328007   -0.073220
H       0.585438   -0.245208   -0.860702
H       1.731818   -0.350480    1.392244
H       0.176894   -0.419158    2.180248
H       0.323681   -4.587932    2.179631
H       1.842677   -4.559611    1.257971
H       2.154656   -5.696832    3.470792
H       3.135094   -4.223023    3.360166
H       1.338327   -3.215283    4.507868
