18

O       0.067827    1.294602    0.383465
C      -0.029463   -0.063861    0.058385
C      -1.472033   -0.534081    0.036498
N      -2.207294   -0.174889   -1.180949
C      -1.916191   -1.593481   -0.914407
C      -0.968857   -2.255934   -1.904878
C       0.500868   -1.777478   -1.782884
C       0.613742   -0.348506   -1.300386
O       1.187334    0.537356   -1.892898
H       0.520847    1.700123   -0.373981
H       0.519523   -0.668804    0.802947
H      -1.987632   -0.452946    0.990831
H      -3.175071    0.051261   -0.972029
H      -2.746130   -2.215993   -0.586543
H      -0.998990   -3.342122   -1.774253
H      -1.336853   -2.046206   -2.914258
H       1.012543   -2.398312   -1.035433
H       1.038266   -1.880394   -2.727512
