18

O      -0.248618    1.377699   -0.009251
C      -0.039395   -0.009131   -0.016073
C       0.745968   -0.412148   -1.245741
O       1.136102    0.400658   -2.049800
C       0.676562   -0.486930    1.255407
C       2.003493    0.210822    1.666784
C       1.518595    0.173337    3.140850
C       0.073161   -0.060612    2.623098
H       0.181849    1.709931   -0.813045
H      -1.008644   -0.540036   -0.076380
H       0.951594   -1.495809   -1.365157
H       0.798228   -1.575493    1.207104
H       2.942253   -0.291546    1.421040
H       2.030528    1.232338    1.279553
H       1.906106   -0.699245    3.674629
H       1.696023    1.060953    3.751919
H      -0.475182    0.879086    2.523689
H      -0.551488   -0.787238    3.148233
