21

C       0.056911    1.619790   -0.233501
C      -0.026489    0.126555   -0.006922
C       1.222893   -0.745852   -0.017062
C       0.453306   -0.506321    1.256059
C       1.038193    0.224106    2.469999
O       0.702472   -0.613868    3.569969
C       0.292920   -1.858620    3.030615
C      -0.686541   -2.539317    3.957047
O      -0.319393   -1.553224    1.794100
H       0.966449    2.044551    0.204452
H       0.071660    1.851018   -1.303944
H      -0.799217    2.140726    0.209061
H      -0.910910   -0.349712   -0.422372
H       1.150062   -1.729351   -0.467686
H       2.185977   -0.255828   -0.133258
H       2.126351    0.347306    2.385459
H       0.586652    1.208034    2.637903
H       1.183615   -2.490728    2.850979
H      -1.557215   -1.896504    4.106157
H      -1.008974   -3.490967    3.527069
H      -0.211891   -2.731520    4.922405
