21

O      -0.013393    1.393803   -0.225637
C      -0.012566    0.003272    0.068577
C      -1.431221   -0.506632    0.032105
C      -1.610896   -2.058255    0.014565
C      -2.477021   -1.939590   -1.283369
C      -2.313846   -0.390884   -1.246837
C      -3.332751    0.457453   -0.453197
C      -3.849830   -0.243193    0.772564
C      -2.468851    0.345523    0.808341
H       0.894527    1.707885   -0.190025
H       0.594389   -0.555132   -0.663462
H       0.419820   -0.191442    1.066285
H      -0.672103   -2.599667   -0.136152
H      -2.107662   -2.485344    0.889053
H      -2.008897   -2.401980   -2.155894
H      -3.501837   -2.313368   -1.212060
H      -1.922846    0.100500   -2.137839
H      -3.836468    1.329523   -0.852935
H      -4.592347    0.319514    1.330635
H      -4.021883   -1.315034    0.794032
H      -2.196061    1.122833    1.511845
