19

O      -0.024502   -0.076998    0.301669
C      -0.048718    1.124674    0.096739
C      -1.367901    1.843741   -0.187506
C      -1.365665    2.727112   -1.418014
N      -1.971576    4.067411   -1.270166
C      -0.515559    3.940252   -1.446991
C       0.366914    4.238386   -0.253748
C       1.506057    3.224929   -0.134747
N       1.114872    1.851926    0.187801
H      -2.120823    1.057375   -0.266691
H      -1.629130    2.454416    0.682193
H      -1.519839    2.208798   -2.361658
H      -2.405901    4.353957   -2.143701
H      -0.097629    4.225673   -2.411110
H       0.813320    5.234621   -0.349688
H      -0.234592    4.252726    0.658618
H       2.079162    3.230766   -1.075378
H       2.195924    3.559384    0.649498
H       1.889726    1.233921    0.388291
