18

C      -0.148966    1.615824   -0.002152
C       0.035409    0.112904   -0.069963
C       0.837858   -0.622983   -1.171429
C       2.207649    0.082830   -1.085342
C       2.414653   -0.262507    0.419238
N       0.973213   -0.535926    0.923058
C       1.056607   -1.729849   -0.064005
C       2.537803   -1.783795    0.279310
O       3.361705   -2.622576    0.479171
H       0.795035    2.164509   -0.044885
H      -0.783132    1.963197   -0.825317
H      -0.642617    1.882622    0.937714
H      -0.935055   -0.375647    0.073568
H       0.429916   -0.843470   -2.158973
H       2.976061   -0.368761   -1.719721
H       2.163089    1.149095   -1.310426
H       3.062139    0.347915    1.042904
H       0.349490   -2.550817    0.040233
