18

C      -0.036471    1.516191    0.011931
C       0.102440    0.016801   -0.025224
N      -0.567128   -0.824021    0.995949
C       0.910553   -0.780600    0.937320
C       1.532127   -1.948215    0.183416
N       1.117382   -1.853566   -1.238132
C      -0.313302   -2.051003   -1.514631
C       0.229741   -0.676397   -1.370492
H       0.739793    1.998234   -0.592122
H      -1.008591    1.834244   -0.381952
H       0.051752    1.894673    1.035523
H      -0.891837   -0.229438    1.756331
H       1.455301   -0.316358    1.755383
H       2.624616   -1.869195    0.218647
H       1.250188   -2.919146    0.603282
H      -0.522377   -2.450148   -2.504155
H      -0.956893   -2.405495   -0.716407
H       0.387405   -0.038307   -2.236530
