19

O      -0.554030    1.431974   -0.784393
C       0.026244    0.315737   -0.131069
C      -1.044116   -0.557961    0.481720
N      -1.839789   -1.346012   -0.484953
C      -1.030032   -2.043927    0.534839
C       0.086568   -2.924031    0.016681
N      -0.445000   -4.146129   -0.564998
C      -0.184494   -5.385344   -0.070789
O       0.531966   -5.626956    0.877830
H      -1.159686    1.071617   -1.442736
H       0.651667   -0.265554   -0.821884
H       0.678177    0.719729    0.650518
H      -1.600032   -0.061764    1.275739
H      -2.820680   -1.346559   -0.220139
H      -1.574871   -2.490780    1.365272
H       0.682037   -2.391694   -0.730418
H       0.748003   -3.229198    0.830887
H      -1.083367   -4.054931   -1.339821
H      -0.708937   -6.173019   -0.647606
