19

O      -0.009338    1.534328   -0.021233
C       0.115870    0.129929    0.110470
C      -1.243281   -0.541083    0.025058
N      -1.970729   -0.364390   -1.298351
C      -1.264599   -1.183391   -2.311032
C      -2.147311   -1.876627   -1.356316
C      -1.421303   -2.064208   -0.045004
C      -0.561850   -3.169819    0.436868
N      -1.898977   -2.928402    1.019586
H      -0.571612    1.693864   -0.788507
H       0.807827   -0.285032   -0.638863
H       0.562205   -0.055708    1.094625
H      -1.893366   -0.108706    0.794050
H      -1.638479   -1.002637   -3.313916
H      -0.188874   -1.326387   -2.248735
H      -3.093185   -2.337047   -1.619956
H      -0.472569   -4.086591   -0.139829
H       0.317737   -2.916581    1.024117
H      -1.817923   -2.465197    1.922162
