19

O       0.043701    1.452641    0.201323
C       0.103972    0.067357    0.040690
C      -0.551866   -0.722713    1.124865
C       0.965134   -0.827399    0.964369
C       1.393234   -1.996082    0.129507
C       1.033924   -1.793218   -1.140633
C       0.397168   -2.492014   -2.323217
C      -0.735146   -1.407789   -2.185058
C       0.263694   -0.514309   -1.352631
H       0.842259    1.830354   -0.184034
H      -0.906845   -0.124163    1.956960
H      -1.160594   -1.588713    0.886041
H       1.587409   -0.400533    1.744030
H       1.759551   -2.923616    0.556697
H       0.952734   -2.366308   -3.258681
H       0.123596   -3.543199   -2.209998
H      -1.119003   -0.975228   -3.111391
H      -1.565683   -1.768056   -1.574502
H       0.754791    0.210172   -2.017310
