19

C       0.284991    1.552249    0.102151
C       0.108793    0.038004   -0.039144
C       0.657019   -0.500127   -1.361607
O       2.089054   -0.310586   -1.479257
C       2.351631   -1.726976   -1.389562
C       0.840310   -2.060577   -1.469281
N       0.175996   -2.878631   -0.490733
C      -0.044017    0.093663   -2.509769
N      -0.610870    0.529558   -3.418180
H       1.338104    1.826981   -0.003325
H      -0.285110    2.090200   -0.661156
H      -0.061517    1.889122    1.082995
H       0.638858   -0.475092    0.770954
H      -0.944880   -0.249501    0.039418
H       2.986985   -2.079446   -2.208986
H       2.817103   -1.996077   -0.430908
H       0.552861   -2.407273   -2.462876
H       0.125285   -3.845077   -0.787695
H       0.639717   -2.854450    0.410319
