23

C      -0.434657    1.348594   -0.148948
C      -0.108739   -0.145700   -0.186772
C       0.914500   -0.504521   -1.267110
C       1.193039   -2.020200   -1.391967
C       0.325843   -2.444553   -2.585783
O      -1.031117   -2.668886   -2.223202
C       0.398807   -1.187464   -3.463278
C      -0.735382   -0.994125   -4.455400
O       0.416447   -0.093065   -2.547733
H       0.457700    1.943828    0.077375
H      -0.819600    1.677645   -1.117393
H      -1.186288    1.571114    0.614673
H       0.289265   -0.469153    0.784499
H      -1.016432   -0.729110   -0.376825
H       1.848414    0.043474   -1.071818
H       2.247860   -2.207030   -1.617817
H       0.946736   -2.572329   -0.479944
H       0.734738   -3.319143   -3.110997
H      -1.051952   -3.388220   -1.584944
H       1.358902   -1.224379   -4.007414
H      -1.696244   -1.007485   -3.938965
H      -0.619379   -0.036136   -4.969213
H      -0.727718   -1.791338   -5.205441
