21

C      -0.645223    1.474971   -0.051432
C      -0.075743    0.049851   -0.009799
C       0.880213   -0.274106   -1.141533
C       1.998206   -0.896395   -0.757007
C       3.147796   -1.346364   -1.600550
C       2.008328   -1.083840    0.742478
O       2.913978   -0.175200    1.424221
C       1.813730    0.692411    1.779180
C       0.764422   -0.310723    1.237526
H       0.146506    2.229998   -0.054715
H      -1.243454    1.622934   -0.956609
H      -1.294478    1.666315    0.809539
H      -0.934903   -0.636533   -0.057222
H       0.647453   -0.016367   -2.171573
H       3.010518   -1.082346   -2.652585
H       4.079959   -0.889840   -1.247219
H       3.285948   -2.433390   -1.535977
H       2.184991   -2.118497    1.062214
H       1.783705    0.879129    2.858616
H       1.866370    1.654288    1.255184
H       0.179636   -0.784848    2.026495
