20

O      -2.842666    0.623869   -2.171911
C      -2.483470   -0.712555   -1.848751
C      -1.892535   -0.700496   -0.441696
C      -1.561946   -2.079354    0.106779
C      -0.461105   -2.830704   -0.609042
O       0.731756   -2.059637   -0.536247
C      -1.657418   -2.285014    1.599105
C      -2.682066   -2.913204    0.687058
H      -3.179395    0.634691   -3.072359
H      -3.360281   -1.379871   -1.878919
H      -1.748219   -1.105438   -2.568357
H      -0.989352   -0.082159   -0.443748
H      -2.616554   -0.208683    0.217768
H      -0.326615   -3.816188   -0.134536
H      -0.744001   -3.014112   -1.658061
H       1.393463   -2.475945   -1.096053
H      -0.926265   -2.932708    2.070819
H      -1.963394   -1.442152    2.209151
H      -3.681827   -2.492067    0.673901
H      -2.654681   -3.989374    0.548584
