23

C      -0.211290    1.513038   -0.027787
C       0.018698    0.006481   -0.009806
C       1.218562   -0.590260   -0.839730
C       2.136368   -0.195089    0.362417
C       0.863985   -0.619031    1.180315
C       0.653760   -0.229380    2.626288
C       0.788241   -2.112323    0.774047
C       0.504856   -3.248991    1.694487
C       1.022252   -2.079934   -0.543384
H       0.700307    2.095964    0.128439
H      -0.637608    1.819833   -0.989630
H      -0.926864    1.802284    0.750608
H      -0.931760   -0.508515   -0.184852
H       1.428117   -0.279314   -1.863644
H       3.040778   -0.790383    0.511046
H       2.371750    0.871106    0.426754
H       0.707451    0.856582    2.755186
H      -0.325839   -0.557216    2.993374
H       1.416117   -0.675661    3.275196
H      -0.469644   -3.139389    2.188250
H       0.502424   -4.200931    1.155441
H       1.250448   -3.318410    2.497366
H       1.056506   -2.892594   -1.256434
