19

O      -0.157245   -0.035213    0.038252
C      -0.018208    1.158244   -0.035189
C       1.306335    1.885275    0.035523
C       1.481023    2.877841   -1.147117
C       1.837285    4.202348   -0.448518
O       1.169172    4.137887    0.804060
C       1.340248    2.820841    1.261491
C       0.776595    2.499669    2.607489
C       2.280818    2.583593    2.415973
H      -0.895770    1.838113   -0.145286
H       2.101774    1.139036    0.080797
H       2.241683    2.547366   -1.856870
H       0.538277    2.987462   -1.694174
H       2.925304    4.286804   -0.304390
H       1.482179    5.091153   -0.974601
H       0.291983    3.311439    3.137905
H       0.329585    1.523259    2.760720
H       2.857131    1.664712    2.443691
H       2.782137    3.457297    2.817124
