16

O      -0.031743   -0.110692   -0.060891
C       0.049396    1.082146   -0.215121
C       1.300501    1.855342   -0.123867
C       1.304669    3.308882    0.305397
C       1.815659    2.999447   -1.071668
C       3.188530    2.312012   -0.959878
N       2.616106    1.239654   -0.100186
C       1.243203    3.517662   -2.263228
C       0.790859    3.966902   -3.284030
H      -0.843927    1.710524   -0.434809
H       0.335803    3.797149    0.331512
H       1.997644    3.616085    1.085385
H       3.544835    1.912312   -1.912618
H       3.973767    2.927525   -0.505910
H       3.024957    1.163716    0.826762
H       0.385700    4.357608   -4.184484
