20

C      -0.184989    1.344768   -0.303684
O      -0.050921   -0.040961   -0.106717
C       0.693707   -0.673921   -1.125475
C       0.744788   -2.175091   -0.851853
C      -0.676657   -2.805834   -0.894709
C      -0.721934   -3.491367   -2.238424
C       0.475240   -3.543907   -2.818550
C       1.547084   -2.899953   -1.971272
H       0.792410    1.853609   -0.317764
H      -0.702282    1.576561   -1.248655
H      -0.774834    1.739885    0.527293
H       0.232202   -0.486907   -2.111661
H       1.716642   -0.260899   -1.161226
H       1.208103   -2.315408    0.128491
H      -0.823238   -3.530365   -0.082115
H      -1.453686   -2.045174   -0.764927
H      -1.634669   -3.908873   -2.650028
H       0.691402   -4.011952   -3.772817
H       2.177840   -2.205784   -2.542464
H       2.229322   -3.655428   -1.558651
