22

C       0.090732    1.607725   -0.133247
C       0.029463    0.084321    0.008001
C       0.683852   -0.424389    1.295923
C       0.617372   -1.948261    1.437876
N       1.333205   -2.381564    2.634682
C       0.762170   -3.122377    3.461737
C       1.145961   -3.751458    4.785356
C      -0.285049   -4.324121    4.737676
O      -0.518514   -3.667160    3.456752
H       1.127262    1.962818   -0.139167
H      -0.381806    1.943476   -1.061793
H      -0.421644    2.102887    0.699185
H      -1.017989   -0.244139   -0.023963
H       0.518955   -0.383348   -0.856882
H       1.735455   -0.114471    1.333041
H       0.197307    0.035779    2.165980
H      -0.429240   -2.282181    1.428783
H       1.110413   -2.408316    0.570676
H       1.955387   -4.481044    4.727009
H       1.354125   -3.041431    5.587400
H      -0.370551   -5.409390    4.641745
H      -0.978695   -3.957189    5.498414
