18

C       0.054196    1.509323   -0.091870
C       0.134627   -0.003620    0.039042
O       0.422965   -0.549120    1.089216
N      -0.148373   -0.700392   -1.103766
C      -0.125226   -2.134403   -1.175329
C      -1.448350   -2.892210   -1.596718
C      -0.691854   -3.414601   -2.820043
O      -0.232344   -2.264090   -3.547358
C       0.545083   -2.720084   -2.429365
H       0.989770    1.942431    0.270144
H      -0.130304    1.853821   -1.112632
H      -0.746990    1.876106    0.556025
H      -0.373004   -0.209320   -1.954420
H       0.281852   -2.504767   -0.234892
H      -1.723153   -3.668144   -0.878772
H      -2.316020   -2.266303   -1.817233
H      -0.830375   -4.329759   -3.381975
H       1.589264   -2.946669   -2.611774
