18

C      -0.215642    1.518050    0.087390
C       0.128558    0.022597   -0.010804
C       0.777082   -0.507141    1.232385
N       2.051812   -0.818258    1.217723
O       2.342613   -1.260720    2.540063
C       1.223769   -1.206943    3.261846
N       1.288589   -1.547124    4.587638
C       0.179496   -0.736878    2.508840
N      -1.150112   -0.593420    2.990492
H       0.686105    2.111629    0.262284
H      -0.682950    1.868732   -0.837663
H      -0.911545    1.714051    0.909406
H      -0.785725   -0.550124   -0.212197
H       0.806760   -0.151879   -0.850924
H       1.971818   -2.255766    4.814333
H       0.373074   -1.725999    4.978572
H      -1.422109    0.379076    3.096940
H      -1.828173   -1.029891    2.374671
