22

C       0.076511    1.564911    0.262539
N       0.143761    0.119376    0.170847
C      -1.121604   -0.626100    0.336165
C      -0.415994   -1.616508    1.308591
C      -1.089578   -1.865974    2.649529
O      -0.032504   -2.838727    0.699386
C       0.779937   -0.616204    1.292224
C       2.178370   -1.122937    0.944377
O       2.971444   -0.060801    0.430188
H       1.088721    1.976577    0.302581
H      -0.428314    1.973188   -0.619898
H      -0.468580    1.916780    1.159665
H      -1.915827   -0.037547    0.821196
H      -1.514166   -1.064771   -0.588322
H      -2.018226   -2.436300    2.517248
H      -0.427957   -2.441372    3.304741
H      -1.346393   -0.928147    3.150079
H      -0.811787   -3.402342    0.648119
H       0.814622   -0.017140    2.215491
H       2.689890   -1.495491    1.837755
H       2.101376   -1.946361    0.226120
H       2.539343    0.201359   -0.391286
