25

C      -0.191351    1.684070    0.009805
C      -0.012152    0.159928    0.055534
C       0.630134   -0.280835    1.378071
C      -1.356797   -0.545724   -0.152575
C      -2.130094   -0.452173   -1.513685
C      -2.309751   -1.977973   -1.499457
C      -0.991416   -2.698562   -1.520296
C       0.212403   -2.328080   -2.363642
C      -1.455655   -2.079901   -0.222864
H       0.767596    2.200211    0.124779
H      -0.634838    2.009030   -0.937136
H      -0.849686    2.023939    0.818902
H       0.667887   -0.123052   -0.756692
H      -0.006003   -0.013116    2.230915
H       0.784708   -1.364157    1.404341
H       1.602037    0.201405    1.526951
H      -2.033662   -0.203226    0.641036
H      -3.070138    0.096812   -1.429971
H      -1.575897   -0.044297   -2.366052
H      -3.240714   -2.483621   -1.728238
H      -1.141292   -3.777350   -1.481354
H       0.280241   -1.256319   -2.559308
H       1.146644   -2.637713   -1.881970
H       0.159479   -2.831396   -3.335879
H      -1.627674   -2.709067    0.643997
