23

C      -0.235682    1.451169   -0.053274
C      -0.005269   -0.060338   -0.037357
C       0.903240   -0.523251   -1.178773
O       2.189839    0.061297   -1.101167
O       0.663199   -0.472286    1.159255
C      -0.139177   -0.632575    2.333530
C      -0.859411   -1.981375    2.334965
C       0.837499   -0.492390    3.503558
O       1.858225   -1.471857    3.460900
H       0.724340    1.972048   -0.074025
H      -0.804583    1.737988   -0.943751
H      -0.800267    1.781961    0.822886
H      -0.965538   -0.588980   -0.127955
H       0.961063   -1.622321   -1.158992
H       0.476153   -0.222797   -2.141122
H       2.505164   -0.110982   -0.206720
H      -0.871268    0.185724    2.398499
H      -1.517287   -2.058252    3.206831
H      -1.475787   -2.110014    1.440891
H      -0.128253   -2.791711    2.381341
H       1.258033    0.524805    3.491090
H       0.306643   -0.628936    4.451364
H       2.239058   -1.418733    2.576994
