17

C      -0.108046    1.564894   -0.351522
C      -0.224503    0.157322    0.254069
N      -1.565472   -0.383532    0.098527
C      -1.852266   -1.036971   -0.968782
N      -1.061234   -1.368247   -2.030907
C      -3.258336   -1.560991   -1.096706
O      -3.625580   -2.138104   -2.094441
C      -4.223365   -1.332158    0.087932
O      -5.373688   -1.670343    0.002553
H       0.887605    1.979673   -0.167831
H      -0.279374    1.552505   -1.432969
H      -0.850246    2.231743    0.095317
H       0.542778   -0.504002   -0.180430
H      -0.015361    0.215474    1.327282
H      -0.203310   -0.877978   -2.208410
H      -1.538398   -1.785418   -2.815799
H      -3.790645   -0.855383    0.981264
