17

N      -0.065573    0.630500    1.601901
C      -0.544465    0.464251    0.437235
N      -1.862330    0.066700    0.273276
C      -2.448767   -0.128009   -0.961790
O      -1.861135    0.040502   -2.009544
C      -3.898381   -0.611710   -0.890884
C      -4.786902    0.236264   -0.007297
C      -5.776720   -0.362350    0.896841
O      -4.540849    0.149318    1.404204
H       0.909140    0.919787    1.541781
H      -0.033409    0.596288   -0.518373
H      -2.419473   -0.058079    1.110762
H      -4.277999   -0.623822   -1.915078
H      -3.897109   -1.642242   -0.516030
H      -4.961945    1.254114   -0.355975
H      -6.660906    0.202641    1.185080
H      -5.883181   -1.445483    0.929233
