14

O      -0.292390    0.476425   -0.731686
C       0.197195    1.026413    0.231598
C       1.235298    2.065276    0.142139
C       1.633074    3.032143    1.289989
N       2.874938    3.688063    0.748004
C       2.787509    3.413149   -0.480266
O       3.629056    2.436238   -1.078214
C       2.375702    1.700487   -1.118914
C       1.483851    2.833903   -1.115628
H      -0.096234    0.741959    1.266597
H       0.813119    3.720269    1.543866
H       1.952357    2.526977    2.206383
H       2.366346    0.723792   -1.584943
H       0.798097    3.250387   -1.842437
