21

C       0.208006    1.554486    0.041594
C      -0.016634    0.032767    0.027377
C       0.588472   -0.612420    1.277819
O      -1.415211   -0.246934    0.086841
C       0.607248   -0.582124   -1.240778
C       0.143836   -2.021642   -1.684936
C      -0.308379   -1.411574   -3.016906
O      -1.276989   -0.385944   -2.728480
C       0.124490   -0.065677   -2.612833
H       1.273782    1.807980    0.012552
H      -0.279709    2.025944   -0.817737
H      -0.225130    1.984330    0.948953
H       0.064708   -0.250342    2.167100
H       0.478982   -1.700168    1.243093
H       1.651203   -0.369485    1.376091
H      -1.762327   -0.168052   -0.812752
H       1.698624   -0.527179   -1.181356
H       0.977743   -2.718000   -1.795101
H      -0.649228   -2.476536   -1.089553
H      -0.372166   -1.865489   -3.998393
H       0.477622    0.773530   -3.200555
