20

C      -0.276412    1.558118   -0.095456
C       0.029100    0.072759    0.048863
C       1.118975   -0.569316   -0.843318
N       1.786070   -1.224943    0.337899
C       2.885442   -0.366867    0.814298
C       3.057253   -0.570519    2.292670
C       1.989819    0.375836    1.795661
O       1.945151    1.712665    2.154647
C       0.819551   -0.453782    1.273047
H       0.625158    2.168317   -0.008670
H      -0.735701    1.756362   -1.070571
H      -0.977753    1.895440    0.675638
H      -0.903331   -0.494894   -0.033087
H       0.765424   -1.304624   -1.570905
H       1.767573    0.147467   -1.360040
H       3.679598   -0.043036    0.151213
H       2.810432   -1.529657    2.742740
H       3.920826   -0.063582    2.712860
H       1.872645    1.770391    3.113998
H       0.249908   -1.028782    2.010594
