16

O       0.097969    1.383033    0.058169
C       0.018801    0.006782    0.047498
C      -0.335318   -0.814859   -1.147087
C      -1.284663   -0.812052    0.061173
C      -1.052263   -1.916635    1.086608
O       0.360446   -1.976723    1.243354
C       0.889824   -0.666952    1.094209
C      -2.547816   -0.159704   -0.048819
N      -3.553844    0.405955   -0.146117
H      -0.559607    1.754301   -0.540724
H      -0.692160   -0.288917   -2.026265
H       0.209720   -1.732418   -1.345556
H      -1.559235   -1.660396    2.028702
H      -1.386605   -2.905663    0.760684
H       1.937742   -0.766255    0.798014
H       0.833225   -0.082255    2.024710
