19

C       0.236805    1.751961   -0.077911
C      -0.265039    0.298224   -0.137674
C       0.524744   -0.574800   -1.058326
N       0.112511   -1.077084   -2.195989
C       1.173661   -1.798521   -2.718392
C       2.241464   -1.718229   -1.864372
N       1.831141   -0.939981   -0.809388
O       3.498188   -2.204668   -1.845718
C       3.831447   -3.003325   -2.971204
H       1.268611    1.808007    0.285815
H       0.208762    2.211623   -1.070029
H      -0.384995    2.349692    0.595603
H      -0.270443   -0.127221    0.875085
H      -1.296735    0.273435   -0.497585
H       1.097902   -2.321030   -3.657602
H       2.398959   -0.706523   -0.012156
H       4.863630   -3.325361   -2.829151
H       3.175610   -3.880428   -3.036804
H       3.748677   -2.425043   -3.899923
