19

O      -0.095939   -0.034903   -0.104748
C      -0.014130    1.175795   -0.064294
N       1.141735    1.894826   -0.049756
C       2.438624    1.227526   -0.071862
C       3.300924    1.680703    1.112834
C       3.392981    3.212832    1.174007
C       1.992304    3.844049    1.191871
C       1.158554    3.346609    0.002747
H      -0.904072    1.836275   -0.030997
H       2.245145    0.154181   -0.054617
H       2.949790    1.467437   -1.016635
H       2.857147    1.299952    2.041015
H       4.298306    1.236308    1.026340
H       3.963934    3.528103    2.053555
H       3.943053    3.578975    0.295674
H       1.477993    3.575504    2.123130
H       2.057303    4.937110    1.159512
H       1.584035    3.743391   -0.932361
H       0.126098    3.703754    0.066848
