11

O      -0.049461    0.005528   -0.201061
C      -0.018989    1.179678   -0.021471
O      -1.098467    1.968028    0.193433
C      -0.667686    3.306080    0.433184
O       0.643913    3.412972   -0.082825
C       1.210467    2.123613   -0.004600
C       2.010686    1.926199    1.216638
N       2.628110    1.789433    2.182931
H      -1.316029    3.995830   -0.109441
H      -0.696603    3.498558    1.513774
H       1.832752    1.944329   -0.884889
