22

C      -0.835469    1.251422    0.141739
C      -0.025047   -0.042086    0.093205
C       0.655348   -0.406958   -1.272645
C       0.889591    0.742254   -2.265925
O       1.514443    0.293480   -3.461054
C       1.964050   -1.126473   -0.852945
C       2.209859   -0.700789    0.586826
C       2.191936    0.749289    0.906715
N       1.002464   -0.080577    1.157012
H      -0.222751    2.128216   -0.088567
H      -1.666907    1.223127   -0.569395
H      -1.250200    1.387326    1.144351
H      -0.703898   -0.867744    0.340266
H       0.001045   -1.115726   -1.797706
H      -0.062828    1.246405   -2.487122
H       1.567449    1.500884   -1.864206
H       0.941557   -0.368841   -3.861808
H       1.837466   -2.213616   -0.887814
H       2.788234   -0.879773   -1.528444
H       2.753204   -1.383615    1.234709
H       2.679552    1.113035    1.806936
H       2.186549    1.463679    0.089275
