21

C       0.002996    1.559923   -0.009147
C       0.068599    0.028638    0.103205
C       0.732392   -0.385287    1.424768
C      -1.329125   -0.599569   -0.050595
C      -2.158532   -0.153794   -1.266570
O      -3.113005   -1.191752   -1.488072
C      -2.461503   -2.421077   -1.248208
C      -1.347066   -2.123659   -0.240527
O      -0.624307   -2.945569    0.260799
H       1.001091    1.994249    0.107254
H      -0.390346    1.890899   -0.975343
H      -0.634693    1.982807    0.776370
H       0.689268   -0.345825   -0.723295
H       0.798963   -1.470485    1.511401
H       1.740588    0.036001    1.494093
H       0.157386   -0.007182    2.279179
H      -1.918609   -0.397659    0.857228
H      -2.713636    0.772980   -1.113514
H      -1.509299   -0.029050   -2.150062
H      -3.176788   -3.152133   -0.859949
H      -2.006238   -2.839133   -2.162449
