18

O      -0.329134    1.353160   -0.177025
C      -0.093623   -0.019867   -0.149636
C      -0.227081   -0.770526    1.172578
C      -1.266692   -0.899421    0.100925
O      -2.553540   -0.262193    0.249447
C      -3.205418   -1.369055   -0.417008
C      -3.316907   -1.232161   -1.951824
N      -1.948303   -1.814965   -2.120754
C      -1.852809   -2.080162   -0.661446
H      -1.286242    1.464786   -0.257645
H       0.666099   -0.345872   -0.855443
H       0.427855   -1.615942    1.361243
H      -0.494306   -0.179453    2.042624
H      -4.059042   -1.740848    0.151321
H      -4.122258   -1.845555   -2.373279
H      -3.414117   -0.208207   -2.326080
H      -1.953762   -2.665226   -2.671352
H      -1.587528   -3.089802   -0.346471
