21

C      -0.032453    1.597764    0.232011
C       1.525297    1.630475    0.215602
C       1.557402    0.095911   -0.056434
C      -0.005832    0.063040   -0.039771
C      -0.303964   -0.554684   -1.430814
C      -0.038779    0.418209   -2.599125
C       1.520536    0.451192   -2.615749
C       1.851483   -0.509193   -1.453863
O       0.792536   -1.481053   -1.559832
H      -0.466076    1.854770    1.201092
H      -0.528086    2.212049   -0.522826
H       1.978755    2.264828   -0.549086
H       1.968016    1.905695    1.175527
H       2.058901   -0.489467    0.716453
H      -0.465687   -0.542428    0.743469
H      -1.243885   -1.103718   -1.496386
H      -0.434064   -0.003906   -3.525879
H      -0.493023    1.401533   -2.465535
H       1.913482    0.045870   -3.550956
H       1.935521    1.452897   -2.491312
H       2.812109   -1.018110   -1.539836
