23

C      -0.280293    1.132030    0.115499
C      -0.484410   -0.280163   -0.445239
C       0.632417   -0.715414   -1.373060
C       1.971554   -1.154462   -0.805143
C       1.081706   -2.157817   -1.466357
O       0.520802   -3.127223   -0.634058
C      -0.679398   -3.700012   -1.139087
C      -1.213120   -4.611278   -0.044659
O      -1.443723   -3.896821    1.154499
H       0.647161    1.196704    0.693881
H      -0.218828    1.872500   -0.689708
H      -1.108184    1.420160    0.770899
H      -0.576564   -0.999690    0.375260
H      -1.438577   -0.318156   -0.986875
H       0.682097   -0.159508   -2.307154
H       2.890700   -0.858828   -1.298211
H       2.041448   -1.228468    0.275488
H       1.365882   -2.538010   -2.448584
H      -1.410044   -2.912244   -1.368156
H      -0.480506   -4.270102   -2.060678
H      -2.171005   -5.040771   -0.355288
H      -0.505108   -5.440351    0.112175
H      -0.613701   -3.447643    1.351948
