11

O      -0.131096    0.030879   -0.003073
C      -0.005542    1.221534    0.005880
C       1.351274    1.901724   -0.002946
N       2.454922    1.236992   -0.020493
C       3.578399    2.032047   -0.026135
N       3.632402    3.326782   -0.015860
C       2.450998    4.034330    0.002812
O       2.296262    5.209625    0.014238
O       1.245547    3.223608    0.009082
H      -0.852133    1.934954    0.021263
H       4.523941    1.493934   -0.040549
