19

C      -0.081021    1.611530    0.037188
C      -0.131491    0.081409   -0.013086
C       0.687092   -0.519698   -1.161929
N       2.119912   -0.301557   -1.057824
C       2.896103   -1.410535   -1.302336
O       4.096565   -1.449693   -1.367581
N       2.021316   -2.553147   -1.472378
C       1.306484   -2.858217   -0.207666
C       0.651463   -2.046572   -1.259045
H       0.934417    1.974821    0.229345
H      -0.423055    2.052584   -0.905756
H      -0.719609    1.998768    0.836169
H       0.221827   -0.338064    0.935214
H      -1.170827   -0.247177   -0.137739
H       0.303542   -0.106820   -2.108616
H       2.547288    0.609213   -1.034861
H       1.034285   -3.901925   -0.087453
H       1.658369   -2.366667    0.694873
H      -0.122862   -2.490923   -1.875438
