23

C       0.545887    0.631605   -1.668280
C       0.133092   -0.189241   -0.438053
C       0.094581    0.670004    0.833924
C      -1.211537   -0.843738   -0.670233
O      -1.251408   -1.931034   -1.613349
C      -1.536838   -2.211573   -0.253683
C      -0.744936   -3.172611    0.640076
C      -2.069024   -3.430932    1.422149
C      -2.867912   -2.767360    0.259773
H       1.540553    1.068462   -1.532877
H       0.564080    0.003309   -2.563117
H      -0.158031    1.453553   -1.845555
H       0.868363   -0.991532   -0.300384
H      -0.162506    0.073783    1.715639
H       1.065854    1.140649    1.015735
H      -0.648709    1.471177    0.744934
H      -2.045265   -0.143400   -0.780574
H      -0.413934   -4.051728    0.079217
H       0.105196   -2.771215    1.197227
H      -2.308034   -4.470868    1.649717
H      -2.122702   -2.849617    2.345559
H      -3.651408   -2.051205    0.519536
H      -3.280054   -3.505433   -0.434963
