17

O       0.145853    0.086581   -0.285132
C       0.044255    1.242718    0.000461
C      -1.150286    2.190939    0.190274
C      -0.183799    3.191356    0.884370
C       1.050587    2.328209    0.418332
N      -0.322309    4.571278    0.471481
C       0.671880    5.456266    1.069885
C       0.494527    6.835159    0.607133
N       0.371469    7.917608    0.224115
H      -1.522287    2.566392   -0.770593
H      -1.999600    1.811117    0.761835
H      -0.289006    3.151743    1.973384
H       1.803609    2.034514    1.153701
H       1.558299    2.756727   -0.454533
H      -0.284853    4.647235   -0.540729
H       0.545815    5.437961    2.159743
H       1.718750    5.164199    0.871331
