18

C       0.068993    1.392620    0.077041
O      -0.040682   -0.019649   -0.005045
C      -1.343675   -0.567968   -0.007643
C      -2.139770   -0.189712   -1.270356
C      -1.137205   -2.104709    0.044414
C      -0.440573   -2.569924    1.234036
C       0.121113   -2.967403    2.217925
C      -2.103559   -0.124832    1.191088
N      -2.708590    0.250318    2.101146
H       1.135135    1.604860    0.175327
H      -0.308222    1.892371   -0.824551
H      -0.457526    1.789633    0.954057
H      -1.567844   -0.487805   -2.153363
H      -3.107202   -0.698083   -1.280980
H      -2.326385    0.884814   -1.315698
H      -2.116009   -2.590633   -0.034033
H      -0.569002   -2.368620   -0.854934
H       0.617226   -3.311709    3.091379
