17

N      -0.202101   -1.207965   -0.313364
C      -0.121818   -0.062252   -0.176886
C       0.023502    1.385976   -0.009309
C      -0.226862    1.881910    1.448647
C       1.311375    1.974056    1.579541
C       2.034071    3.093723    2.345848
O       2.577656    2.151357    3.293302
C       2.073505    1.031310    2.542841
N       1.421048    1.863391    0.116272
H      -0.543321    1.889076   -0.798833
H      -0.721079    2.854540    1.467652
H      -0.739388    1.191577    2.117480
H       2.813721    3.594950    1.756893
H       1.400268    3.848782    2.827108
H       1.469559    0.352890    3.157277
H       2.878538    0.457128    2.061229
H       2.142051    1.247045   -0.245258
