17

C       0.032626    1.397299   -0.002166
C       1.461634    2.057612    0.063022
N       2.317608    1.149637    0.823200
C       2.526189    0.112416    0.142293
N       2.544725   -1.269379    0.592250
C       1.903994   -1.608807   -0.718399
C       0.708177   -0.685623   -1.018271
O      -0.009298   -0.036427   -0.012161
C       2.102233   -0.229794   -1.294739
H      -0.523143    1.658430    0.900375
H      -0.505507    1.805306   -0.869186
H       1.834736    2.252814   -0.951170
H       1.371219    3.020968    0.571997
H       3.478721   -1.674124    0.637554
H       2.006058   -2.591446   -1.160977
H       0.106801   -1.003743   -1.871068
H       2.502307    0.147276   -2.227625
