19

C       0.470215    0.805812    0.920780
C      -0.232723    0.012732   -0.192354
O      -1.467785    0.594853   -0.507628
C       0.620896   -0.043505   -1.471893
O       0.244083    0.535238   -2.477378
N       1.778278   -0.763874   -1.368924
C       2.786821   -1.010307   -2.318725
C       2.639148   -0.390176   -3.682176
N       3.738291   -1.749880   -1.906059
H       1.398361    0.327428    1.250387
H       0.699771    1.818223    0.575711
H      -0.202025    0.879877    1.778961
H      -0.394060   -1.021586    0.152846
H      -1.374440    0.903458   -1.424430
H       1.969742   -1.221703   -0.487544
H       2.564805    0.697551   -3.613359
H       3.501003   -0.661717   -4.295044
H       1.720650   -0.726554   -4.168530
H       4.430334   -1.885831   -2.640443
