16

C       0.220393    1.357406    0.422636
C      -0.102486   -0.086668    0.029388
O      -1.501226   -0.283298   -0.152427
C       0.653932   -0.540239   -1.192178
C       0.168340   -1.162380   -2.297229
O       1.141368   -1.426259   -3.183163
N       2.354312   -0.974143   -2.661012
C       2.048260   -0.461417   -1.494877
O       2.983435    0.070640   -0.688275
H       1.287507    1.478401    0.624417
H      -0.046958    2.044343   -0.389476
H      -0.346985    1.632047    1.315704
H       0.157923   -0.742141    0.870163
H      -1.812484    0.404186   -0.752525
H      -0.825226   -1.478970   -2.571378
H       3.836707   -0.009811   -1.135738
