19

C      -0.547924    0.572525    0.443890
O       0.516717    0.882467   -0.436935
C       0.805770   -0.081608   -1.339712
C       0.290895   -1.332539   -1.586900
C       1.046062   -1.866398   -2.685083
N       0.770378   -3.109427   -3.298707
C       1.987616   -0.936412   -3.060697
C       3.018570   -0.941650   -4.136867
N       1.810210    0.169310   -2.223133
H      -1.480645    0.401211   -0.108603
H      -0.320137   -0.320390    1.040255
H      -0.666268    1.432843    1.104304
H      -0.529256   -1.811892   -1.078439
H       0.656982   -3.847369   -2.612624
H       1.505268   -3.387449   -3.938116
H       3.178738   -1.959198   -4.507511
H       2.747848   -0.324762   -5.005674
H       3.990777   -0.581743   -3.774861
H       2.362187    1.008447   -2.224142
