23

C      -1.453207    0.637562    0.515266
C       0.014295    0.455332    0.111208
C       0.817560   -0.317265    1.157922
C       0.476420   -1.790291    1.445813
C       0.856840   -2.722939    0.335341
O       0.769690   -2.428998   -1.035801
C       1.959403   -2.192612    1.179200
C       2.318238   -0.725384    0.893780
C       3.021437   -0.365328   -0.412416
H      -1.540317    1.178909    1.464368
H      -2.009274    1.201192   -0.240564
H      -1.953595   -0.329088    0.643402
H       0.073416   -0.052931   -0.854535
H       0.475657    1.442009   -0.028281
H       0.772820    0.242253    2.099447
H      -0.177800   -2.120019    2.246046
H       0.621658   -3.764224    0.565098
H      -0.160188   -2.464632   -1.284067
H       2.591576   -2.867136    1.746737
H       2.921234   -0.348770    1.726588
H       2.469162   -0.722060   -1.282162
H       3.152614    0.719458   -0.498365
H       4.019508   -0.817735   -0.440032
