14

C      -0.002080    1.519753    0.148161
C       0.013005    0.036466    0.038493
C      -0.002315   -0.733191   -1.089176
O       0.022720   -2.070452   -0.667176
C       0.050708   -1.976513    0.672810
O       0.079137   -3.110676    1.362959
N       0.047169   -0.781757    1.163503
C      -0.035418   -0.459775   -2.460112
C      -0.064078   -0.207397   -3.638921
H       0.888210    1.875381    0.677559
H      -0.031941    1.981301   -0.841024
H      -0.873432    1.854109    0.721072
H       0.074450   -3.849495    0.741595
H      -0.089266    0.015059   -4.676713
