15

C      -0.094151    1.400805    0.103870
C      -0.092429   -0.079234    0.011048
C      -1.045568   -0.991768   -0.327834
O      -2.325340   -0.671729   -0.732316
C      -3.355790   -1.157299    0.013492
O      -4.493499   -0.976588   -0.287156
C      -0.455152   -2.295684   -0.262236
C       0.828292   -2.078365    0.120921
O       1.062997   -0.749014    0.285091
H       0.629921    1.847285   -0.586613
H      -1.087669    1.775676   -0.150957
H       0.158089    1.741481    1.114148
H      -3.003559   -1.715697    0.899345
H      -0.922863   -3.241408   -0.484253
H       1.665460   -2.729031    0.310218
