15

C      -0.111923    1.443178    0.017949
N      -0.014482    0.002461    0.038427
C      -0.025760   -0.765966   -1.129780
O      -0.061069   -0.359557   -2.278547
N       0.004422   -2.063969   -0.667577
C       0.039215   -2.105156    0.735621
C       0.018149   -0.822677    1.162532
N      -0.074460   -0.259270    2.441285
H       0.825080    1.922654    0.326737
H      -0.324749    1.729712   -1.013577
H      -0.915958    1.784634    0.676043
H      -0.016335   -2.849747   -1.291318
H       0.073075   -3.027108    1.287925
H      -0.142184   -0.976210    3.152717
H       0.712485    0.343320    2.663800
