20

C      -0.154458    1.382531    0.156296
N       0.085551   -0.044180    0.022703
C       0.040354   -0.884015    1.216245
C      -1.360443   -1.155940    1.724486
C      -1.585123   -1.489760    3.149805
N      -2.059154   -0.201912    2.607554
C       0.018414   -0.690006   -1.196921
N      -0.090947    0.135806   -2.306533
O       0.016584   -1.906237   -1.303296
H       0.566292    1.970460   -0.426424
H      -1.167550    1.677336   -0.144247
H      -0.013291    1.667595    1.200538
H       0.516620   -1.829857    0.951679
H       0.636108   -0.403959    2.004059
H      -2.012008   -1.609984    0.981664
H      -2.368115   -2.187907    3.430340
H      -0.724882   -1.487974    3.815778
H      -1.418847    0.534772    2.897201
H       0.296064    1.065097   -2.277695
H       0.077474   -0.364108   -3.165753
