16

C       0.046742   -1.257982    0.284196
C      -0.002285   -0.058972    0.214948
C      -0.112037    1.378246    0.110411
C      -1.385816    1.901998   -0.530000
C      -1.475562    1.480025   -2.011301
C      -2.690107    1.972374   -2.654092
N      -3.657464    2.370073   -3.145349
C       0.653641    2.232253    1.041802
O       1.087605    2.062459   -0.303594
H       0.104787   -2.316740    0.353409
H      -2.254501    1.524173    0.017977
H      -1.393566    2.992845   -0.458927
H      -0.604472    1.863340   -2.553427
H      -1.449420    0.387873   -2.091969
H       0.263085    3.217655    1.292592
H       1.278122    1.763087    1.799112
