18

C      -0.006268    1.552132   -0.022847
C      -0.020980    0.004691    0.023412
C       0.738689   -0.472719    1.189897
N       1.328711   -0.837593    2.114241
C      -1.419195   -0.563908    0.030607
C      -2.004723   -1.276869   -0.926074
C      -3.408990   -1.621657   -0.524399
O      -3.585933   -1.030086    0.759969
C      -2.391291   -0.376788    1.171742
H       1.020205    1.923821   -0.067318
H      -0.546168    1.892690   -0.909668
H      -0.485287    1.976894    0.862364
H       0.494446   -0.371530   -0.867852
H      -1.560466   -1.587059   -1.864009
H      -4.158721   -1.223371   -1.226179
H      -3.569119   -2.709993   -0.464569
H      -2.015852   -0.820751    2.106810
H      -2.602045    0.684087    1.379334
