16

C      -0.222799    1.143841    0.400070
O      -0.198926   -0.245397    0.049070
C      -1.403584   -0.767192   -0.242096
O      -2.446756   -0.168443   -0.240400
N      -1.257023   -2.093387   -0.665440
C      -0.495278   -3.101726    0.008357
C      -2.009092   -3.186879   -0.081267
C      -2.747306   -2.961775    1.205038
O      -2.388893   -2.178514    2.048112
H       0.814258    1.414581    0.598565
H      -0.624241    1.741531   -0.421965
H      -0.838208    1.303407    1.288590
H       0.107892   -3.748064   -0.622648
H      -0.093016   -2.863767    0.988973
H      -2.473924   -3.868351   -0.788551
H      -3.651711   -3.590725    1.341145
