12

O      -0.020957    1.328480    0.009410
N       1.302099    1.815356   -0.000671
C       2.100833    0.787288   -0.013927
C       1.362973   -0.445032   -0.013441
C       0.036779   -0.014383    0.001627
C      -0.975530   -0.968791    0.006230
N      -0.630039   -2.251880   -0.003995
C       0.681403   -2.565550   -0.018313
N       1.718955   -1.733786   -0.023797
H       3.169755    0.943671   -0.023370
H      -2.031734   -0.715513    0.017754
H       0.910496   -3.627019   -0.026179
