25

C       0.122415    1.559472    0.186491
C       0.039168    0.039456    0.022970
C       0.838945   -0.481432   -1.179161
C       0.796018   -2.001309   -1.314084
C      -0.509196   -2.666840   -1.869638
C       0.037180   -2.360809   -3.293910
C       1.405672   -2.638111   -2.606333
C       1.292536   -4.142587   -2.288863
C      -0.171625   -4.164405   -1.724785
H       1.159566    1.886451    0.322121
H      -0.271764    2.075556   -0.696217
H      -0.450252    1.901315    1.054433
H       0.403506   -0.447585    0.937383
H      -1.011088   -0.261171   -0.081009
H       0.475136    0.009603   -2.089529
H       1.887551   -0.169848   -1.069913
H       1.162409   -2.443332   -0.377286
H      -1.502919   -2.347116   -1.551787
H      -0.267236   -3.026069   -4.108360
H      -0.096344   -1.323886   -3.602318
H       2.347209   -2.282822   -3.029093
H       1.409181   -4.766302   -3.179981
H       2.032067   -4.468982   -1.551695
H      -0.216701   -4.502272   -0.685196
H      -0.839794   -4.800189   -2.313121
