19

C      -0.395957    1.018146   -0.155380
O       0.379260   -0.137905   -0.409942
C       1.021485   -0.612812    0.723946
C       0.329113   -1.462566    1.773606
C      -0.598258   -2.448149    1.070727
O       0.462842   -2.902001    0.188695
C       1.399753   -2.050352    0.843093
C       2.786995   -2.609580    1.021121
O       3.714953   -1.653327    1.500044
H       0.228997    1.857614    0.185621
H      -0.878735    1.295061   -1.095183
H      -1.166438    0.830271    0.605830
H       1.752342    0.069885    1.163737
H       0.346294   -1.241158    2.832757
H      -0.936741   -3.267627    1.713184
H      -1.444218   -2.034233    0.512130
H       2.771516   -3.421762    1.755075
H       3.097483   -3.049063    0.060012
H       3.884622   -1.029659    0.786787
