18

C      -0.070499    1.455140    0.077827
C       0.035779   -0.039989   -0.020935
C       0.737961   -0.678541   -1.243620
C       1.056239   -2.095998   -0.685217
C       0.421151   -1.986595    0.724738
O       0.702070   -0.620858    1.080390
C      -1.081762   -1.909579    0.529357
N      -1.939105   -2.810012    0.730831
O      -1.296577   -0.645836    0.046711
H       0.929281    1.895639    0.094314
H      -0.617005    1.851517   -0.781250
H      -0.598327    1.731215    0.992985
H       0.079972   -0.689068   -2.114067
H       1.643575   -0.122538   -1.495867
H       0.624477   -2.908258   -1.272486
H       2.131444   -2.262119   -0.595570
H       0.762504   -2.679924    1.487522
H      -2.874546   -2.485547    0.478956
