16

N      -0.009449   -1.164159    0.006707
C      -0.030629   -0.009324   -0.018183
C      -0.017969    1.450043   -0.046931
C       1.420715    2.010793    0.052891
N       1.437442    3.456960    0.019693
C       1.307956    4.261661   -1.095872
C       1.310295    5.547079   -0.624890
N       1.434675    5.560962    0.745372
C       1.503603    4.299186    1.095915
H      -0.488145    1.795798   -0.973301
H      -0.621835    1.834449    0.781676
H       1.881303    1.680583    0.986970
H       2.028289    1.620417   -0.767948
H       1.244572    3.846423   -2.088613
H       1.239242    6.462112   -1.192894
H       1.612975    3.922403    2.102978
