21

C      -0.040607    1.619170   -0.063180
C       0.024921    0.089609    0.008749
C       0.776834   -0.566383   -1.182588
C       1.522687   -1.785838   -0.591326
C       1.600114   -1.458535    0.888080
C       2.446242   -2.265511    1.832949
C       1.846509   -3.647740    2.055093
O       2.394285   -4.687397    1.800005
C       0.781887   -0.451429    1.201239
H       0.965832    2.051505   -0.087431
H      -0.570367    1.947401   -0.963762
H      -0.565708    2.037432    0.802261
H      -1.009315   -0.287779    0.046937
H       0.111418   -0.830447   -2.008589
H       1.508202    0.150111   -1.573851
H       0.970197   -2.723262   -0.750051
H       2.510875   -1.939711   -1.040434
H       3.466513   -2.398215    1.458061
H       2.488655   -1.766612    2.809925
H       0.814911   -3.623551    2.476790
H       0.640097   -0.059254    2.204293
