15

O      -0.495897    0.698521    0.709324
C       0.234607    0.971876   -0.211838
C       1.373205    1.919898   -0.117032
C       1.809501    2.458580    1.241395
C       2.285686    3.860982    0.937312
C       2.089633    4.192671   -0.342394
C       1.534700    3.048643   -1.124632
N       2.348667    1.833494   -1.217301
H       0.103987    0.533610   -1.224580
H       0.955453    2.446647    1.928750
H       2.587258    1.838291    1.704984
H       2.746133    4.494656    1.686672
H       2.315415    5.150254   -0.796092
H       0.851478    3.209045   -1.952775
H       3.287164    2.013845   -0.864804
