22

C      -0.080107    1.554376    0.033240
C      -0.018992    0.026599   -0.031944
C       0.736929   -0.498468   -1.248921
C       0.896721   -2.026839   -1.236962
C       1.339075   -2.556629   -2.593981
N       0.269289   -2.735544   -3.596872
C       1.259566   -1.668097   -3.785710
C       0.757977   -0.250572   -3.601720
O       0.023825   -0.079267   -2.408156
H       0.922935    1.987978    0.117635
H      -0.544804    1.956489   -0.870328
H      -0.660994    1.889752    0.897752
H       0.460480   -0.374077    0.869838
H      -1.033812   -0.388646   -0.061165
H       1.744156   -0.041571   -1.274379
H       1.630177   -2.302741   -0.470952
H      -0.056934   -2.492137   -0.964431
H       2.130736   -3.301985   -2.581026
H       0.488882   -3.522047   -4.202410
H       2.007359   -1.786864   -4.568061
H       1.625582    0.433299   -3.620642
H       0.085201    0.031456   -4.418591
