17

C       0.103658    1.505219    0.022038
C      -0.003267   -0.015538    0.018293
C      -1.432217   -0.520510   -0.109958
O       0.704183   -0.562035   -1.130969
C       2.020513   -0.668851   -1.044549
N       2.742522   -1.148294   -2.055108
N       3.960675   -1.083509   -1.520364
N       4.016094   -0.609319   -0.293475
N       2.775067   -0.333628    0.035506
H       1.145119    1.821666    0.110808
H      -0.319913    1.920630   -0.897688
H      -0.449486    1.914365    0.873158
H       0.465103   -0.421694    0.920347
H      -1.888946   -0.151917   -1.033551
H      -1.458088   -1.613018   -0.124178
H      -2.029797   -0.168687    0.735823
H       4.786278   -1.376638   -2.020267
