13

C      -0.037141    1.532159    0.013323
C       0.013443    0.021170    0.019220
O      -1.174761   -0.597353   -0.409313
C       1.307448   -0.699021   -0.273896
C       0.708447   -0.713735    1.122263
H       0.890269    1.962403    0.402761
H      -0.178462    1.915613   -1.005185
H      -0.870112    1.889552    0.627310
H      -1.283523   -0.402254   -1.346906
H       1.239738   -1.616421   -0.847838
H       2.205440   -0.115238   -0.447445
H       1.195392   -0.138898    1.902403
H       0.247354   -1.636702    1.453785
