20

O       0.624949    0.956346   -0.384747
C       0.122320   -0.232103    0.173734
C      -0.097269   -0.267253    1.712088
N      -1.571230   -0.493494    1.553571
C      -1.398555   -0.505257    0.038629
C      -1.838785   -1.984977   -0.043520
C      -1.952198   -1.924558    1.485500
C      -1.594858   -2.955581    2.510474
C      -3.034254   -2.508749    2.337924
H       0.116601    1.694468   -0.030505
H       0.754260   -1.031176   -0.224499
H       0.427188   -1.053872    2.263566
H       0.113073    0.694557    2.194667
H      -1.963305    0.228211   -0.544928
H      -2.783702   -2.155599   -0.565418
H      -1.085132   -2.668890   -0.447091
H      -1.310827   -3.946002    2.168708
H      -1.072359   -2.625232    3.402783
H      -3.454057   -1.867164    3.104921
H      -3.738073   -3.195312    1.878084
