17

O      -0.084465    1.329136    0.461431
N      -0.029903   -0.072761    0.520045
C      -1.068579   -0.598484    0.019165
C      -2.396253   -0.135606   -0.551695
C      -2.898757   -1.621762   -0.430573
O      -3.505518   -2.223177   -1.541141
C      -1.457070   -2.034944   -0.061389
C      -0.644281   -3.155595   -0.611228
N      -1.052102   -3.138422    0.799700
H       0.739020    1.585298    0.890881
H      -2.930658    0.620498    0.027579
H      -2.326488    0.206520   -1.589998
H      -3.587527   -1.759148    0.406126
H      -2.890377   -2.175665   -2.281442
H      -1.136687   -3.914285   -1.214083
H       0.390057   -2.944564   -0.868825
H      -0.277701   -2.829537    1.385295
