19

O      -0.058893    1.553651   -0.028567
C      -0.006714    0.147429    0.044222
C       0.227791   -0.649380    1.368072
C      -0.952112   -0.321776    2.288945
C      -1.797141    0.911029    2.073628
C      -2.097688   -0.331378    1.272057
C      -1.322084   -0.666385   -0.010080
C      -0.437598   -1.838988    0.552913
O       0.337936   -2.477344   -0.435601
H       0.834799    1.874689   -0.179281
H       0.672326   -0.240430   -0.717988
H       1.220972   -0.743603    1.811115
H      -1.023781   -0.857837    3.228922
H      -2.508561    1.105953    2.871340
H      -1.388369    1.791404    1.604290
H      -3.017588   -0.874600    1.456444
H      -1.879351   -0.777785   -0.939739
H      -0.978512   -2.566009    1.169818
H       0.948278   -3.076218    0.005638
