18

C       0.006573    1.573438    0.003088
C       0.111938    0.047608   -0.035189
C       0.649435   -0.538768    1.285673
C       0.777247   -2.027948    1.263822
N      -0.071004   -2.827587    1.849030
O       0.360807   -4.097623    1.612784
N       1.508876   -4.100521    0.847085
C       1.780018   -2.839716    0.632770
N       2.915355   -2.405395   -0.025000
H       0.983713    2.036069    0.180710
H      -0.382981    1.966555   -0.940504
H      -0.664756    1.900999    0.804091
H      -0.869840   -0.393445   -0.241241
H       0.759339   -0.255855   -0.869129
H       1.630744   -0.100265    1.508725
H      -0.019228   -0.261943    2.106192
H       3.395347   -3.144693   -0.520451
H       2.778350   -1.591868   -0.607282
