20

C       0.173670    1.571434   -0.077729
C      -0.017216    0.069770    0.158368
N       0.699884   -0.434188    1.309710
C       2.131603   -0.604774    1.376601
C       2.350335   -1.218760    2.742067
C       3.715189   -1.558247    3.241995
C       1.166052   -1.371808    3.343091
C       0.072040   -0.890177    2.455613
O      -1.127313   -0.885258    2.657229
H       1.223981    1.822865   -0.259550
H      -0.400235    1.892673   -0.952700
H      -0.170188    2.144380    0.788235
H      -1.071047   -0.151797    0.348453
H       0.286158   -0.491822   -0.736435
H       2.503872   -1.263917    0.575878
H       2.673038    0.348457    1.278092
H       4.355902   -0.668579    3.279700
H       3.674750   -1.991882    4.243833
H       4.213577   -2.275464    2.578189
H       0.968742   -1.781081    4.324118
