20

C      -0.220810    1.533946   -0.114150
C       0.019491    0.012736   -0.008632
N       0.727864   -0.254015    1.251545
C      -1.308729   -0.635163    0.100273
N      -2.347534   -1.138757    0.157323
C       0.749056   -0.534852   -1.266014
C       2.083515    0.120888   -1.569246
C       0.557785   -1.963268   -1.635453
N      -0.021149   -0.888793   -2.466996
H       0.735602    2.062969   -0.119831
H      -0.756992    1.779915   -1.033419
H      -0.800651    1.878455    0.743871
H       1.013241   -1.228386    1.291092
H       1.571927    0.308498    1.290573
H       2.768919    0.057974   -0.717542
H       2.549942   -0.384437   -2.417262
H       1.964485    1.173784   -1.841105
H       1.377344   -2.509010   -2.095056
H      -0.120859   -2.573084   -1.045625
H      -1.022022   -0.833196   -2.285987
