15

O      -0.036674    0.005103   -0.288898
C       0.005592    1.164321    0.031988
C       1.265273    1.997786    0.013865
N       2.464317    1.307471   -0.456928
C       2.591381    2.035700   -1.636218
O       3.318212    1.941030   -2.581523
C       1.416661    2.928347   -1.228631
C       0.372896    3.556567   -2.073879
N       1.352582    4.370292   -1.338097
H      -0.903054    1.710604    0.372359
H       1.384354    2.513071    0.976902
H       2.673150    0.328498   -0.317817
H       0.499039    3.554541   -3.152231
H      -0.656663    3.521774   -1.726399
H       0.940221    4.783423   -0.505054
