20

C       0.330599    1.365327   -0.286080
C      -0.188782   -0.024424    0.102368
C       0.572053   -0.615336    1.272150
C       0.727310   -2.097393    1.524438
C       0.275829   -3.146463    0.532054
O       0.835754   -3.016055   -0.790150
C       1.954842   -2.274734   -0.959935
N       2.516956   -1.467243   -0.164212
C       1.935300   -1.280556    1.129270
H       1.375160    1.308440   -0.605777
H      -0.256192    1.791824   -1.105663
H       0.275436    2.059596    0.559841
H      -1.250202    0.039786    0.376009
H      -0.142869   -0.688039   -0.765501
H       0.480075   -0.023981    2.181590
H       0.653969   -2.434997    2.554361
H       0.565410   -4.136044    0.905413
H      -0.809850   -3.148140    0.386770
H       2.354437   -2.440544   -1.958354
H       2.674616   -1.040967    1.886135
