16

C      -0.032867    1.525523    0.084182
C      -0.021579    0.027588    0.003623
C       1.172673   -0.800906   -0.368039
C       0.597539   -0.979297    1.030311
C       1.332886   -0.670587    2.211826
N       1.931125   -0.421241    3.171102
C      -0.678001   -1.798785    0.949938
O      -1.793727   -0.972677    1.289804
C      -1.253699   -0.863999   -0.031707
H       0.936065    1.910347    0.415238
H      -0.252155    1.966151   -0.894780
H      -0.794378    1.864067    0.792467
H       1.086406   -1.625106   -1.070373
H       2.120140   -0.272636   -0.412982
H      -0.792377   -2.870300    1.055518
H      -1.921124   -1.057929   -0.862674
