21

C      -0.027458    1.521504    0.005006
C       0.022270    0.016205   -0.021902
C       0.658829   -0.748687   -1.213681
C       0.936316   -2.091743   -0.609745
C       1.254701   -1.957060    0.870000
C       0.357682   -0.792033    1.313999
C      -1.126709   -1.254831    1.383372
C      -1.250490   -0.888761   -0.108769
C      -0.469113   -1.774599   -1.104058
H       0.975412    1.950598    0.122564
H      -0.451738    1.921152   -0.923254
H      -0.642426    1.886689    0.835416
H       1.151321   -0.327044   -2.081626
H       1.475517   -2.820366   -1.207220
H       1.052533   -2.866299    1.447798
H       2.318034   -1.716256    0.994717
H       0.748445   -0.233372    2.167015
H      -1.310236   -2.291009    1.685425
H      -1.737724   -0.592335    2.004200
H      -2.191812   -0.502674   -0.506304
H      -0.916556   -2.373896   -1.888726
