16

C      -0.039404    1.495514   -0.214374
C       1.417779    1.891927    0.066274
C       2.168962    0.927993    0.630477
C       1.320220   -0.271271    0.821690
O       0.585818   -0.543393    2.077983
C      -0.263250   -1.110484    1.048908
C       0.918137   -1.641085    0.162568
N       0.358239   -1.017932   -1.079463
C       0.048909   -0.005569   -0.010002
H      -0.715971    1.987383    0.494483
H      -0.370894    1.772713   -1.220659
H       1.783932    2.890088   -0.157906
H       3.204585    1.038929    0.927906
H      -1.192774   -1.597947    1.341981
H       1.407301   -2.615911    0.186219
H       1.131217   -0.674356   -1.657777
