17

O       0.246970    1.349490    0.030346
C       0.087933   -0.030481   -0.066105
C      -1.362648   -0.442964    0.130758
O      -2.199602    0.414978    0.342450
C      -1.666005   -1.897515    0.068254
C      -2.859810   -2.429529    0.813545
C      -2.904859   -2.427740   -0.689914
C      -3.844509   -1.519348   -1.406096
O      -4.349670   -1.813735   -2.461887
H      -0.643757    1.697564    0.197570
H       0.417084   -0.410651   -1.048932
H       0.697840   -0.561305    0.685426
H      -0.796628   -2.541743   -0.012679
H      -2.765269   -3.381870    1.320932
H      -3.460831   -1.682054    1.321007
H      -2.747561   -3.369677   -1.204358
H      -4.065491   -0.563476   -0.894698
