18

C      -0.017321    1.551223   -0.033216
C       0.062207    0.023423   -0.005248
N       0.714055   -0.491931    1.187989
C       2.004750   -0.877131    1.312843
N       2.299235   -1.263317    2.544644
C       1.140872   -1.112331    3.240205
O       1.046800   -1.419464    4.557048
C       0.124008   -0.634525    2.447512
N      -1.235628   -0.329013    2.655589
H       0.979978    1.996885    0.027031
H      -0.489902    1.886140   -0.961901
H      -0.613629    1.918210    0.805811
H      -0.943207   -0.403229   -0.047107
H       0.622242   -0.349672   -0.867993
H       2.691743   -0.863974    0.479702
H       1.919912   -1.735974    4.818393
H      -1.357261    0.426115    3.323027
H      -1.748955   -1.128045    3.013336
