18

N      -0.229721    1.252912    0.185909
C      -0.365466    0.021634    0.420015
O      -0.813721   -0.800610   -0.556880
C      -0.877628   -2.168809   -0.233663
C      -2.015547   -2.672981    0.618326
C      -1.986027   -2.951898   -0.868571
C      -2.977725   -2.262032   -1.795964
C      -4.270221   -2.938999   -1.831884
C      -5.326374   -3.512044   -1.853370
H       0.109492    1.728889    1.019276
H      -0.160044   -0.499173    1.364045
H       0.099830   -2.636669   -0.142282
H      -1.827183   -3.481140    1.315971
H      -2.732543   -1.934106    0.960959
H      -1.733862   -3.965468   -1.164146
H      -3.106843   -1.220737   -1.483095
H      -2.557903   -2.218642   -2.809095
H      -6.265138   -4.007319   -1.877692
