20

C       0.088687    1.546154   -0.170769
C       0.078934    0.041107   -0.000130
C       1.358961   -0.763544   -0.045613
C       0.586688   -0.648964    1.245455
C       1.158479    0.079133    2.437191
C       2.179065   -0.690175    3.312697
C       3.111159    0.500913    3.024814
O       2.155311    1.084464    2.114779
H       0.964234    1.994562    0.302620
H       0.097536    1.812246   -1.233904
H      -0.804733    2.000076    0.273800
H      -0.781598   -0.444975   -0.454892
H       1.371393   -1.711806   -0.572068
H       2.283247   -0.198116   -0.100820
H       0.023486   -1.527590    1.555981
H       0.347481    0.532856    3.025876
H       1.901594   -0.852272    4.355129
H       2.505584   -1.632533    2.869039
H       3.304638    1.158078    3.882403
H       4.062293    0.274935    2.529555
