18

C      -0.001022    1.518125    0.024007
C       0.004350   -0.020300   -0.008036
C       0.814587   -0.601051   -1.215145
C       1.391955   -1.951218   -0.736596
C       1.546500   -1.766425    0.758603
O       2.137247   -0.503125    1.122774
C       0.720471   -0.641378    1.201966
C      -1.372425   -0.533852   -0.026048
N      -2.453070   -0.945030   -0.030660
H       1.027059    1.872438    0.133903
H      -0.419406    1.926440   -0.899846
H      -0.593938    1.894930    0.861857
H       0.197674   -0.693242   -2.110400
H       1.626100    0.095197   -1.434095
H       0.691873   -2.774533   -0.919715
H       2.333463   -2.198722   -1.235295
H       1.797902   -2.598684    1.409776
H       0.278936   -0.558414    2.191513
