21

C       0.023278    1.538213    0.007066
C      -0.025201    0.029771   -0.054398
C       0.409286   -0.745585   -1.308176
C      -0.519116   -1.889268   -0.811632
C       0.301916   -2.780691    0.118489
O       1.068306   -1.954089    0.998476
C       0.383118   -0.743304    1.275799
C      -1.124247   -0.991292    1.560966
C      -1.330954   -0.834175    0.044750
H       1.060143    1.896418    0.009980
H      -0.481352    1.986629   -0.856154
H      -0.458814    1.925655    0.912149
H       0.027192   -0.262346   -2.213170
H       1.470409   -0.980038   -1.439601
H      -1.071641   -2.474700   -1.549352
H      -0.344608   -3.460771    0.692561
H       1.017524   -3.391824   -0.442322
H       0.985181   -0.202619    2.009153
H      -1.393793   -1.923830    2.064964
H      -1.573077   -0.154603    2.104244
H      -2.292008   -0.524021   -0.370247
