12

O      -0.639863    1.233181    0.845860
C       0.041222    1.292599   -0.137301
C       1.265883    2.203084   -0.297355
O       1.913994    2.204204   -1.312310
O       1.495686    2.936769    0.794973
C       2.630725    3.834511    0.723684
C       2.280465    5.106267    0.111150
C       2.001105    6.164664   -0.381822
H      -0.132121    0.691985   -1.052278
H       2.937383    3.971307    1.763120
H       3.435246    3.346042    0.166939
H       1.755824    7.098286   -0.825428
