17

N       0.626138    0.336930   -0.582231
C       0.003756    0.031069    0.585981
O       0.372499    0.403537    1.680256
C      -1.296679   -0.784281    0.428927
C      -1.242007   -1.963341   -0.526739
O      -0.733770   -1.882486   -1.633897
C      -1.867068   -3.242252   -0.079283
C      -2.862964   -3.852101   -1.028093
N      -1.555288   -4.455874   -0.845921
H       1.527077    0.783673   -0.518408
H       0.383627   -0.183162   -1.414524
H      -1.608830   -1.087061    1.428294
H      -2.060661   -0.100169    0.035176
H      -2.004737   -3.378939    0.988184
H      -3.700344   -4.403890   -0.611220
H      -3.065761   -3.304832   -1.944606
H      -0.950542   -4.169839   -1.617105
