17

C       0.199118   -1.166399   -0.106281
C       0.123714    0.033234   -0.054069
C       0.027303    1.458192   -0.011957
C       0.291417    2.219214    1.288894
C       1.292717    2.318892    0.185453
O       2.525652    1.672465    0.361514
C       3.515316    2.314524   -0.445865
C       2.824738    3.521457   -1.019536
C       1.548089    3.514655   -0.647016
H       0.272062   -2.224436   -0.147856
H      -0.723034    1.890440   -0.668836
H      -0.338001    3.073253    1.515187
H       0.585632    1.618521    2.141623
H       4.378735    2.569967    0.185070
H       3.872296    1.626490   -1.228582
H       3.320080    4.250162   -1.647321
H       0.780576    4.232636   -0.903555
