17

O      -0.233888    0.229002   -0.785314
C      -0.137612    1.282280   -0.229708
C      -1.094669    2.180338    0.575671
C      -0.068712    3.339201    0.404066
C       1.000337    2.337154   -0.131550
C       2.163223    1.941494    0.811171
O       3.271674    2.627341    0.252141
C       3.053591    2.558890   -1.130142
O       1.653420    2.700531   -1.326669
H      -2.088070    2.315504    0.142409
H      -1.212283    1.828608    1.605986
H      -0.358308    4.040075   -0.380840
H       0.204155    3.894700    1.302668
H       2.029785    2.269590    1.843213
H       2.321595    0.852633    0.785954
H       3.578298    3.385099   -1.617980
H       3.388404    1.591012   -1.540680
