21

C      -0.177803    1.538170    0.086228
C      -0.028646    0.016324    0.022666
C       0.874794   -0.537926    1.131153
O       0.334768   -0.207574    2.420794
C       0.175850   -1.379588    3.207999
C       0.591879   -2.521675    2.316065
C       0.536654   -3.943802    2.762307
O       1.008660   -4.784449    1.726006
C       0.996977   -2.036233    1.147649
H       0.791502    2.035262   -0.034398
H      -0.841697    1.904589   -0.702657
H      -0.590677    1.840681    1.052125
H      -1.009802   -0.466532    0.104299
H       0.394472   -0.283031   -0.945127
H       1.866610   -0.059764    1.038319
H       0.800490   -1.315036    4.115408
H      -0.869471   -1.465632    3.547002
H       1.138818   -4.059471    3.681489
H      -0.501577   -4.195476    3.044424
H       0.960323   -5.694016    2.033204
H       1.363487   -2.616213    0.312077
