16

C      -0.139778    1.623584    0.068603
C      -0.016986    0.107681    0.090815
C      -1.378227   -0.550413   -0.033844
O      -2.404639    0.078434   -0.135606
C       1.123838   -0.648018   -0.692283
C       2.187910   -0.128328    0.301588
C       0.955269   -0.635579    1.084792
O       0.930701   -1.817992    0.193832
H       0.818233    2.136304    0.156527
H      -0.620264    1.944523   -0.859676
H      -0.786797    1.956657    0.884688
H      -1.372862   -1.654475   -0.025643
H       1.200376   -0.836474   -1.763813
H       3.062970   -0.772657    0.389078
H       2.440439    0.930869    0.318233
H       0.828671   -0.809664    2.153990
