21

C       0.060595    1.313121   -0.473217
C       0.109624   -0.013087    0.282542
O       0.512175    0.154830    1.639971
C      -1.241812   -0.710020    0.259263
O      -1.742936   -1.222240   -0.990251
C      -1.458325   -2.149696    0.075281
C      -0.364492   -3.173343   -0.232161
C      -0.978915   -4.518908   -0.632162
O       0.506740   -2.695761   -1.244158
H       1.034330    1.808414   -0.432564
H      -0.210907    1.150999   -1.520522
H      -0.688317    1.986206   -0.035174
H       0.859760   -0.667583   -0.164457
H      -0.027883    0.854370    2.024908
H      -2.006510   -0.171858    0.828894
H      -2.352356   -2.577055    0.532184
H       0.247487   -3.310737    0.668644
H      -1.629963   -4.400803   -1.505359
H      -0.185357   -5.225005   -0.888040
H      -1.572878   -4.942832    0.184957
H      -0.047116   -2.164834   -1.833951
