19

C      -0.133308    1.527683    0.021054
C       0.025586    0.014970   -0.047833
C       1.172472   -0.628240   -0.952973
C       2.118817    0.304079   -1.663483
O       2.132382    0.467755   -2.859174
C       1.710094   -1.291778    0.327934
O       2.014810   -0.233192    1.248380
C       0.656124   -0.699678    1.167426
C      -0.009828   -1.146889    2.427008
H       0.780355    2.000680    0.390402
H      -0.363860    1.946034   -0.963769
H      -0.952216    1.798066    0.696306
H      -0.922827   -0.459085   -0.319428
H       0.754833   -1.331243   -1.676483
H       2.820649    0.849793   -0.998467
H       2.271048   -2.214244    0.428854
H      -0.313097   -0.286261    3.033729
H      -0.906341   -1.734207    2.204344
H       0.672476   -1.758283    3.023286
