18

O      -0.088287    1.457253   -0.142029
C       0.001166    0.048938    0.016472
C      -1.419081   -0.502387    0.010828
C      -1.456220   -2.015451    0.071125
O      -0.890064   -2.480793    1.276209
C      -1.443667   -3.772909    1.462623
C      -2.871165   -3.629031    0.895231
O      -2.796464   -2.480759    0.055452
H       0.798965    1.821855   -0.076785
H       0.582084   -0.407088   -0.802885
H       0.497348   -0.221406    0.959385
H      -1.979145   -0.106485    0.863129
H      -1.928240   -0.179619   -0.902888
H      -0.911542   -2.461845   -0.784863
H      -0.869308   -4.528632    0.905752
H      -1.412237   -4.016604    2.526513
H      -3.178906   -4.509852    0.319100
H      -3.613674   -3.446901    1.680685
