18

N       0.902783   -0.076254   -1.018764
C       0.073595    0.203473    0.020098
O       0.330412    1.039082    0.870307
C      -1.247429   -0.594695    0.028769
C      -1.010610   -2.112948   -0.011004
O      -0.525802   -2.469106   -1.305765
C      -2.101174   -0.211200    1.252762
C      -2.720920    1.169437    1.138902
O      -3.901769    1.380613    1.257740
H       1.809668    0.362376   -1.018656
H       0.736564   -0.899236   -1.579605
H      -1.791459   -0.350043   -0.893577
H      -0.296791   -2.404046    0.773873
H      -1.960283   -2.626852    0.189784
H      -0.266640   -3.395215   -1.292212
H      -2.915719   -0.925909    1.399707
H      -1.458419   -0.210230    2.141358
H      -1.998952    1.986668    0.941373
