16

N       0.065440    1.291966    0.091529
C       0.096158   -0.054755    0.000701
O       1.116004   -0.714034   -0.136937
C      -1.263713   -0.790277    0.030669
O      -1.018083   -2.161836    0.001661
C      -2.105410   -0.424873    1.288010
O      -2.466843    0.965930    1.273566
C      -3.293139   -1.265242    1.388978
C      -4.313151   -1.898089    1.441595
H       0.945361    1.778195    0.161415
H      -0.784296    1.735412    0.412179
H      -1.846232   -0.470432   -0.849947
H      -0.048837   -2.229221   -0.085817
H      -1.477205   -0.564315    2.175225
H      -3.303973    1.038911    0.801470
H      -5.200284   -2.479828    1.497492
