17

C       0.117251    1.498251   -0.020414
C       0.065596    0.044698   -0.030900
C       0.004686   -1.157785   -0.025928
C      -0.009534   -2.599259   -0.054976
C       1.175392   -3.256126   -0.734022
O      -0.454870   -3.251543    1.148292
C      -1.310151   -3.331704    0.001472
C      -2.582106   -2.667150    0.058379
C      -3.665057   -2.146690    0.080454
H       1.149960    1.860954   -0.063160
H      -0.420831    1.919656   -0.876586
H      -0.340422    1.899505    0.890262
H       2.099708   -2.981508   -0.217562
H       1.073239   -4.343845   -0.710919
H       1.254376   -2.923854   -1.773129
H      -1.330110   -4.316648   -0.466742
H      -4.616490   -1.675616    0.107047
