23

C      -0.377554    1.427959    0.040253
C      -0.084867   -0.069915   -0.004300
C       1.127342   -0.472856   -0.896911
C       2.016990   -0.593727    0.372279
C       3.140409   -1.653751    0.472814
C       4.191001   -0.530046    0.266445
C       3.090207    0.509684    0.608161
C       0.718436   -0.616346    1.219204
O       0.676951    0.052294    2.456019
H       0.530898    2.024200    0.189161
H      -0.826578    1.762210   -0.900630
H      -1.074934    1.668937    0.849487
H      -1.013772   -0.610249   -0.210101
H       0.981810   -1.436636   -1.393967
H       1.440558    0.259513   -1.647415
H       3.192212   -2.085796    1.477802
H       3.119603   -2.469469   -0.255715
H       5.079435   -0.545210    0.901995
H       4.513367   -0.456342   -0.775707
H       3.035739    1.411143   -0.009026
H       3.129407    0.804897    1.662301
H       0.429726   -1.649697    1.440125
H       0.912819    0.973638    2.306210
