21

C      -0.234038    1.229730   -0.083323
O       0.098471   -0.136788   -0.073759
C       0.688142   -0.602220    1.128681
C      -0.337775   -0.774615    2.251063
C       1.390867   -1.934373    0.803303
O       0.441338   -2.936093    0.433888
C       0.651680   -3.343631   -0.915358
C       1.920757   -2.659461   -1.337177
C       2.339237   -1.861389   -0.364209
H       0.636849    1.862953    0.151795
H      -0.577934    1.469700   -1.092913
H      -1.038558    1.479148    0.623947
H       1.471531    0.107306    1.452474
H      -1.087898   -1.509195    1.949897
H       0.151064   -1.128737    3.164624
H      -0.836529    0.169227    2.487197
H       1.899651   -2.260246    1.725866
H       0.723049   -4.441059   -0.953342
H      -0.203060   -3.046399   -1.543263
H       2.380633   -2.806433   -2.306046
H       3.212189   -1.221405   -0.372460
