16

O       0.162416    1.258979   -0.361747
C       0.077257   -0.092117   -0.016840
C       0.181345   -0.397245    1.540149
C      -1.357126   -0.484872    1.576505
O      -2.121777    0.776819    1.535575
C      -2.730695   -0.042646    0.491382
C      -2.568399   -1.419355    1.256603
N      -1.912955   -2.070935    0.067545
C      -1.390918   -0.655120    0.040728
H      -0.494267    1.723449    0.175529
H       0.773057   -0.639790   -0.657462
H       0.661986   -1.356283    1.750403
H       0.636119    0.378280    2.160372
H      -3.590184    0.361435   -0.049200
H      -3.278631   -1.944659    1.902312
H      -1.184077   -2.710034    0.398459
