17

C      -0.373266    1.052710   -0.317301
C       1.044007    1.132552    0.190204
C       0.362156   -0.202988    0.065118
N      -0.007702   -0.863292    1.286113
C      -1.064220   -1.732755    1.332094
C      -1.443721   -2.681453    2.248647
C      -2.658073   -3.166840    1.710010
N      -2.997727   -2.591569    0.583129
O      -1.957800   -1.660810    0.338134
H      -1.164512    1.377868    0.346680
H      -0.562575    1.221390   -1.370707
H       1.840121    1.360649   -0.508919
H       1.194427    1.518849    1.192082
H       0.678850   -0.853341   -0.748956
H       0.755881   -1.115507    1.895594
H      -0.939192   -2.974356    3.153109
H      -3.308338   -3.931668    2.113226
