20

O       0.051693    0.002370    0.035107
C      -0.039474    1.217396    0.075481
C      -1.395654    1.915049    0.009850
C      -1.789158    2.399381   -1.399957
O      -1.076034    3.531029   -1.861503
C       0.222700    3.282433   -2.381829
C       1.314359    3.866468   -1.481409
C       1.168489    3.443319   -0.010905
N       1.076116    2.007190    0.191459
H      -2.123606    1.160834    0.320011
H      -1.460474    2.756337    0.706707
H      -1.695666    1.564164   -2.109931
H      -2.840900    2.702199   -1.380152
H       0.379676    2.204469   -2.518327
H       0.282752    3.745747   -3.374820
H       2.290974    3.557021   -1.875972
H       1.284112    4.961765   -1.524786
H       2.017896    3.817149    0.569685
H       0.274476    3.914175    0.402558
H       1.933949    1.473057    0.162566
