25

C      -0.259516    1.364975    0.138176
O       0.303059    0.101183   -0.127723
C       0.791598   -0.543846    1.018697
C      -0.207022   -1.168722    2.028509
C       0.748925   -2.389450    2.129699
C       0.158115   -3.782253    2.293456
C       1.412195   -1.950181    0.771104
C       0.804821   -2.632750   -0.458320
C       2.936486   -2.009040    0.718985
H       0.473315    2.047161    0.598411
H      -0.582453    1.786835   -0.816893
H      -1.130714    1.297196    0.807065
H       1.509463    0.111409    1.539914
H      -0.433935   -0.618677    2.945018
H      -1.145317   -1.432301    1.529987
H       1.471651   -2.213622    2.935605
H      -0.585116   -4.001728    1.520818
H       0.932949   -4.555664    2.241661
H      -0.337935   -3.879113    3.265800
H      -0.287792   -2.601750   -0.457236
H       1.139394   -2.133158   -1.371762
H       1.115803   -3.681803   -0.509249
H       3.291884   -3.046342    0.711716
H       3.319472   -1.522813   -0.185669
H       3.384655   -1.509149    1.584673
