16

C      -0.027939    1.499974    0.060421
C      -0.002554   -0.010301   -0.081336
C       0.874317   -0.520067   -1.216345
C       0.906854   -2.015884   -1.167298
N       0.893232   -2.760327   -2.180711
O       0.954844   -2.553641    0.111995
C       0.915498   -1.807366    1.268676
O       1.218389   -2.304862    2.305918
O       0.514707   -0.533341    1.167236
H       0.985574    1.891211    0.187307
H      -0.469886    1.951128   -0.832466
H      -0.623295    1.790391    0.929199
H      -1.024255   -0.394349   -0.199975
H       0.504431   -0.207560   -2.193356
H       1.889320   -0.122307   -1.089241
H       0.929255   -3.745119   -1.909871
