20

C      -0.023045    1.555649    0.162014
N       0.049005    0.114144    0.108388
C      -1.219090   -0.659023    0.281995
C      -0.407257   -1.665920    1.094633
C      -0.378550   -2.536164    2.340954
C       1.204033   -2.618995    2.396115
C       1.535680   -1.846137    1.073997
O       0.515224   -2.392027    0.199590
C       0.673743   -0.582750    1.260398
H       0.986696    1.976639    0.111434
H      -0.583769    1.930038   -0.701057
H      -0.511001    1.945624    1.077321
H      -1.967055   -0.130936    0.895571
H      -1.676514   -1.012525   -0.646394
H      -0.812983   -2.053195    3.219521
H      -0.842697   -3.514550    2.201542
H       1.621945   -2.152951    3.293463
H       1.566028   -3.646574    2.333862
H       2.553904   -1.899583    0.683851
H       0.777835    0.016388    2.172668
