13

O      -0.054608   -0.152933   -0.248758
C       0.016895    1.045222   -0.238608
C       1.333178    1.822205   -0.219149
C       1.335002    2.955646   -1.183527
N       1.173560    4.219603   -0.945953
C       1.218856    4.819061   -2.198944
C       1.404779    3.864588   -3.138885
O       1.477427    2.657556   -2.502175
H      -0.890499    1.688541   -0.226526
H       1.450645    2.248969    0.783264
H       2.150602    1.122270   -0.408858
H       1.118215    5.885207   -2.323550
H       1.506020    3.851387   -4.210140
