15

C       0.003713    1.535369    0.048139
C       1.576507    1.403943    0.045350
C       1.324065   -0.028555    0.463761
C       1.423574   -0.864092    1.489638
C       0.093417   -1.595923    1.610705
O      -0.832798   -0.857470    0.787738
C      -0.070494   -0.033915   -0.069783
H      -0.365984    1.867462    1.019767
H      -0.449312    2.121357   -0.754872
H       1.982993    1.504685   -0.965552
H       2.150841    2.034741    0.725655
H       2.209101   -0.943219    2.230427
H       0.130852   -2.646244    1.279033
H      -0.273980   -1.592332    2.645491
H      -0.199401   -0.339248   -1.118388
