20

C       0.003563    1.499252    0.268777
C       1.360987    2.175141   -0.057659
C       2.292438    1.302236   -0.910698
C       2.405984   -0.098283   -0.311689
N       1.124454   -0.810222   -0.317768
C      -0.068947    0.012583   -0.059777
C       0.237594   -0.466498   -1.438461
C       0.663241    0.525254   -2.513955
O       1.889574    1.201704   -2.274053
H      -0.222413    1.631993    1.331403
H      -0.809216    2.001894   -0.270460
H       1.206866    3.133201   -0.561884
H       1.893419    2.394218    0.874614
H       3.279859    1.772824   -0.957381
H       3.122835   -0.689883   -0.890885
H       2.766834   -0.048362    0.722622
H      -0.837028   -0.524215    0.494576
H      -0.329092   -1.310142   -1.829517
H       0.791809   -0.005371   -3.463922
H      -0.146094    1.260103   -2.666997
