19

C      -0.056679    1.572886    0.091507
C       0.021542    0.043711    0.030049
C      -1.375136   -0.586373   -0.082427
N       0.881861   -0.390021   -1.100960
C       1.820479   -1.283608   -0.629098
C       1.846167   -1.378511    0.720619
C       0.779531   -0.542956    1.230454
N       0.409868   -0.248497    2.421648
O       1.238899   -0.881769    3.375464
H       0.946376    2.005111    0.119623
H      -0.581575    1.971890   -0.782982
H      -0.589322    1.877099    0.996178
H      -1.903383   -0.214440   -0.968086
H      -1.305426   -1.676382   -0.145215
H      -1.962627   -0.333966    0.804317
H       0.420303   -0.598898   -1.974829
H       2.464227   -1.790359   -1.338129
H       2.545807   -1.934624    1.320914
H       0.861114   -0.570726    4.204207
