17

O       0.080697    1.385560    0.263089
C       0.040930   -0.006522    0.265469
C      -0.698764   -0.733130    1.343119
C      -1.310775   -0.602348   -0.042131
C      -2.582982    0.134339   -0.495709
C      -2.948354   -1.088220   -1.392562
O      -3.174999   -0.790234   -2.747098
C      -1.570460   -1.697362   -1.030891
O      -0.939709   -2.625949   -1.458516
H       0.707024    1.670527    0.937073
H       0.893383   -0.506997   -0.194142
H      -0.353159   -1.716083    1.646627
H      -1.159835   -0.131641    2.119989
H      -3.310066    0.377111    0.280575
H      -2.368073    1.023615   -1.090836
H      -3.765248   -1.687512   -0.957716
H      -2.958751   -1.580641   -3.255357
