15

O      -0.228021    1.403130   -0.000040
C      -0.017249    0.057222    0.011972
C       0.067906   -1.028108   -0.985832
O       1.191043   -1.671741   -0.428726
C       0.913729   -0.966790    0.818677
C      -0.360027   -1.665490    1.351708
C      -1.065398   -1.047006    0.153036
C      -2.482759   -1.010744   -0.202992
O      -3.349772   -1.607766    0.393245
H       0.495590    1.827812   -0.477047
H      -0.158240   -1.125686   -2.039209
H       1.800175   -0.773507    1.417838
H      -0.307884   -2.753469    1.432141
H      -0.714247   -1.222761    2.285052
H      -2.722618   -0.380611   -1.090029
