17

C      -0.003298    1.531748   -0.065109
C       0.003953    0.076365   -0.028558
C       0.001397   -1.126808    0.004881
C       0.004860   -2.585768    0.050222
C       0.651686   -3.167581    1.308643
C      -0.133043   -4.056604    1.917984
C      -1.446842   -4.157900    1.213088
O      -2.180251   -2.909025    1.215343
C      -1.393602   -3.227847    0.074942
H       1.015160    1.935125   -0.090657
H      -0.528720    1.904879   -0.951242
H      -0.503279    1.948139    0.816252
H       0.536297   -2.965602   -0.836313
H       1.625452   -2.832629    1.644792
H       0.108403   -4.608058    2.818071
H      -2.058908   -5.054097    1.237291
H      -1.937964   -3.366977   -0.854723
