16

C      -0.030532    1.534432   -0.024194
C      -0.007469    0.025257    0.007722
C      -0.023530   -0.704122   -1.180457
C      -0.002086   -2.094560   -1.142752
N       0.034037   -2.812030   -0.014048
C       0.049433   -2.119841    1.122350
C       0.030540   -0.720393    1.201324
C       0.051671   -0.090424    2.541947
O       0.082302   -0.706623    3.583045
H       0.855617    1.963026    0.454984
H      -0.059927    1.893115   -1.055503
H      -0.905544    1.937035    0.496187
H      -0.052763   -0.191261   -2.136387
H      -0.014657   -2.662437   -2.070504
H       0.078791   -2.685467    2.049582
H       0.035207    1.019429    2.549061
