14

N       0.032868   -1.159910    0.016019
C       0.018124   -0.005032    0.025635
C      -0.015400    1.455772    0.012861
C      -0.718585    2.073947    1.237247
O      -0.087940    1.834747    2.484055
C       0.168094    3.083500    1.840154
C       1.470308    3.106504    1.056856
O       2.191284    1.875007    1.113069
C       1.379230    2.111010   -0.024617
H      -0.561002    1.774938   -0.884808
H      -1.804679    2.116342    1.250352
H      -0.187523    3.973867    2.349112
H       2.063257    4.013627    0.995246
H       1.898308    2.181759   -0.977047
