20

C      -0.105638    1.564167   -0.064109
C       0.043154    0.046747    0.006221
C       0.866260   -0.561100   -1.156042
C       1.257785   -1.965619   -0.669280
C       1.423012   -1.808366    0.842708
O       2.019506   -2.545177    1.584793
C       0.734689   -0.519627    1.246035
C       1.360711    0.300282    2.328521
N       0.151356   -0.477865    2.599333
H       0.871179    2.058245   -0.085109
H      -0.648645    1.855320   -0.968926
H      -0.665866    1.959753    0.791311
H      -0.962194   -0.400463   -0.031265
H       0.308109   -0.568766   -2.095820
H       1.767387    0.043714   -1.315891
H       0.440025   -2.679810   -0.837012
H       2.154541   -2.386808   -1.128263
H       2.257603   -0.086176    2.803981
H       1.291899    1.381707    2.256539
H      -0.659705    0.139459    2.580884
