20

C      -0.007022    1.550285    0.067665
C       0.116458    0.040629    0.071653
C       1.391275   -0.707873   -0.215222
N       2.559606    0.014268    0.334987
C       3.175421   -0.946843    1.273787
C       1.977430   -0.201223    1.738449
C       2.029837    0.820545    2.839095
C       0.733489   -0.830572    1.153208
O       0.065939   -1.905641    1.721556
H       0.934517    2.023821    0.351098
H      -0.264409    1.904916   -0.936326
H      -0.792344    1.893944    0.750285
H      -0.736637   -0.479809   -0.364920
H       1.513709   -1.430169   -1.014113
H       3.105936   -2.009431    1.053451
H       4.140168   -0.617505    1.649652
H       3.006203    1.312640    2.870001
H       1.263222    1.591136    2.717059
H       1.868890    0.335685    3.809174
H      -0.748581   -1.582943    2.121408
