20

C      -0.083582    1.594030   -0.186401
C      -0.087803    0.076341    0.031673
N      -1.415729   -0.499671    0.029078
C      -2.365138   -0.830438    1.101348
C      -2.777515    0.312255    2.018472
O      -3.253449    1.389289    1.231870
C      -3.366422   -1.253684   -0.014173
C      -2.243696   -0.866595   -1.002660
O      -2.085104   -0.871012   -2.196570
H       0.936231    1.987445   -0.124395
H      -0.485972    1.830782   -1.175040
H      -0.706656    2.098156    0.556532
H       0.488322   -0.416316   -0.759643
H       0.389198   -0.180868    0.984821
H      -2.020378   -1.663698    1.728792
H      -3.551518   -0.065144    2.705693
H      -1.914532    0.616219    2.633477
H      -3.573808    2.079013    1.819758
H      -3.650450   -2.307155   -0.026642
H      -4.249493   -0.618335   -0.088167
