12

O      -0.002446   -0.034138    0.003176
C      -0.028750    1.182096    0.006543
C       1.183730    1.977215    0.000460
C       2.209576    2.605434   -0.004771
C      -1.309098    1.913430    0.017075
N      -1.406702    3.250214    0.021261
N      -2.706993    3.451643    0.030464
N      -3.488113    2.370918    0.032901
C      -2.611952    1.372381    0.024462
H       3.116132    3.160513   -0.009149
H      -3.097225    4.381672    0.035485
H      -2.922617    0.341125    0.023869
