19

O       0.167999   -0.039865   -0.097174
C       0.025751    1.156804   -0.016311
C      -1.365172    1.790935   -0.031711
C      -1.683469    2.626669   -1.292935
C      -0.609878    3.642271   -1.667360
C       0.105443    4.349801   -0.497585
C       1.213986    3.305077   -0.747775
C       1.242960    2.075153    0.160559
O       0.624502    2.966228   -2.033098
H      -2.086328    0.975497    0.059546
H      -1.464549    2.422698    0.860164
H      -1.811748    1.955207   -2.149524
H      -2.639651    3.143199   -1.144431
H      -0.958824    4.284837   -2.482736
H       0.425380    5.361501   -0.750787
H      -0.382913    4.361379    0.478191
H       2.223776    3.709906   -0.867632
H       1.299896    2.389766    1.212544
H       2.124681    1.463429   -0.046154
