14

N       0.385349    0.816550   -0.875321
C      -0.223262    0.328255    0.352855
C      -1.436850   -0.492114    0.048855
C      -2.313205   -0.543424   -1.006703
C      -3.248731   -1.548735   -0.606872
N      -2.965150   -2.050803    0.562026
O      -1.808671   -1.379086    0.975496
C      -2.341940    0.200848   -2.209949
N      -2.437384    0.768369   -3.214318
H       1.043688    1.559872   -0.675622
H       0.892242    0.078208   -1.351122
H       0.427741   -0.271537    1.009503
H      -0.539837    1.195727    0.946740
H      -4.110701   -1.905672   -1.151688
