16

N      -0.211238    0.333145   -1.070305
C      -0.353685   -0.373471    0.098463
C       0.902994   -1.092405    0.589500
C       1.645698   -1.767383   -0.472057
N       2.222363   -2.265786   -1.340954
N      -1.369780   -0.426116    0.869567
C      -2.556481    0.356374    0.518063
C      -3.176048    0.016229   -0.767754
C      -3.653422   -0.264326   -1.836052
H       0.553594    0.070429   -1.674655
H      -1.062423    0.563142   -1.564792
H       1.570200   -0.362646    1.064742
H       0.596342   -1.805368    1.356500
H      -3.295870    0.206661    1.311854
H      -2.317744    1.432328    0.517204
H      -4.099509   -0.525728   -2.764057
