18

C      -0.129248    1.571731    0.045861
C       0.043475    0.041658    0.012284
C       0.736367   -0.501526    1.241902
N       2.045276   -0.752185    1.140657
C       2.703162   -1.208677    2.207751
C       2.089199   -1.443349    3.434050
C       0.729815   -1.189083    3.555127
C       0.040403   -0.707253    2.446899
O      -1.291949   -0.454968    2.590750
H       0.846621    2.059978    0.117906
H      -0.626346    1.929812   -0.860770
H      -0.723848    1.894703    0.907420
H      -0.934991   -0.442212   -0.128063
H       0.650525   -0.241162   -0.851050
H       3.765039   -1.396898    2.073425
H       2.661573   -1.818353    4.275285
H       0.191912   -1.352781    4.482296
H      -1.655212   -0.167156    1.747501
