18

C       0.206403    1.493091    0.033550
C      -0.009686    0.018618    0.042670
N      -1.110901   -0.584044   -0.163072
C      -0.835473   -2.025805   -0.047736
C       0.686376   -2.101410    0.263498
O       1.105752   -0.720119    0.293492
C      -1.694989   -2.650180    1.028773
C      -2.946762   -3.342859    0.717773
O      -1.757738   -4.078718    1.024083
H       0.938581    1.762118   -0.734160
H      -0.736253    2.001801   -0.163819
H       0.610165    1.821594    0.996217
H      -1.071919   -2.523337   -0.995164
H       0.905284   -2.552498    1.236160
H       1.262011   -2.621798   -0.505561
H      -1.581321   -2.205581    2.019535
H      -3.735213   -3.396809    1.466420
H      -3.281273   -3.403970   -0.316779
