18

C       0.058427    1.517764   -0.035336
C       1.308087    0.667993   -0.121308
C      -0.046586    0.026053    0.052534
C      -0.476947   -0.705734    1.364347
C      -0.580299   -2.146230    0.836066
C      -1.814251   -3.075817    0.629975
O      -1.736638   -2.862909   -0.840810
C      -0.870848   -1.834294   -0.591177
N      -0.652599   -0.692852   -1.084833
H      -0.110712    2.092233    0.870038
H      -0.302877    1.981873   -0.945482
H       1.781396    0.563893   -1.090672
H       1.991257    0.669074    0.721796
H       0.230381   -0.574913    2.186155
H      -1.454471   -0.327751    1.686176
H       0.329852   -2.730114    0.992597
H      -1.688072   -4.131365    0.874073
H      -2.766353   -2.689644    1.002921
