18

C      -0.085304    1.460182    0.042744
C      -0.036817   -0.044260   -0.061538
C       0.951985   -0.742707   -0.933044
C       0.553460   -1.998506   -1.166748
C      -0.666482   -2.260369   -0.323364
N      -0.142448   -2.252576    1.124814
C      -0.536988   -0.840902    1.212654
C      -1.309894   -0.835890   -0.077088
O      -2.507572   -0.316355   -0.513863
H       0.840489    1.859013    0.471140
H      -0.225490    1.914990   -0.943483
H      -0.917858    1.786522    0.673028
H       1.875486   -0.284857   -1.268254
H       1.092745   -2.762366   -1.711343
H      -1.293740   -3.117550   -0.566392
H      -0.816138   -2.777564    1.681536
H      -0.637798   -0.324919    2.161001
H      -3.223860   -0.731074   -0.020098
