21

C       0.061807    1.426064   -0.332674
C       1.389544    0.801649    0.023093
C       0.132471   -0.035283    0.040418
C      -0.444818   -0.591338    1.305944
C      -0.464102   -2.106152    1.500632
C      -1.752489   -1.337813    1.340753
O      -2.492067   -1.009888    2.486361
C      -1.597686   -0.405392    3.419804
C      -0.445167    0.218711    2.599399
H      -0.374029    2.125969    0.371240
H      -0.131793    1.673269   -1.370709
H       2.113895    0.632590   -0.766155
H       1.830247    1.072668    0.976588
H       0.030824   -0.719782   -0.798333
H      -0.140583   -2.708452    0.657669
H      -0.214059   -2.528874    2.468166
H      -2.387375   -1.482006    0.474063
H      -2.163074    0.328173    4.001136
H      -1.212865   -1.161165    4.118539
H       0.501931    0.177477    3.146186
H      -0.658142    1.269309    2.377536
