17

C      -0.260922    1.526043    0.062644
C      -0.014994    0.021573    0.060090
C       0.627594   -0.593438   -1.255690
N       1.730961   -1.066531   -0.397366
C       3.045425   -1.442988   -0.166239
C       3.220920   -1.086218    1.159996
O       4.329172   -1.308996    1.900488
N       2.119788   -0.467202    1.714773
C       1.259130   -0.488038    0.717894
H       0.626865    2.072920   -0.270224
H      -1.096327    1.788024   -0.594749
H      -0.505656    1.869619    1.071988
H      -0.919248   -0.513112    0.369399
H       0.073111   -1.394531   -1.752004
H       0.935000    0.159850   -1.986932
H       3.675384   -1.964165   -0.863337
H       4.141821   -0.946365    2.774726
