15

N       0.009381    1.268401   -0.481332
C       0.014445    0.096650   -0.047511
O       1.027211   -0.664833    0.520564
C       0.196331   -1.858699    0.541436
C      -0.603888   -2.057330    1.839365
N      -1.644083   -1.097545    1.366787
C      -1.021385   -1.016450    0.028371
C      -1.873384   -1.356164   -1.154292
O      -2.989852   -1.797811   -1.038857
H       0.913485    1.727045   -0.355179
H       0.677686   -2.693911    0.035633
H      -0.959006   -3.088847    1.945215
H      -0.094251   -1.751128    2.757216
H      -2.572396   -1.502838    1.290409
H      -1.405740   -1.188546   -2.145356
