18

C      -0.030501    1.435459    0.174636
C       1.287851    0.777716   -0.112212
C       1.832153    0.129528    1.165915
C       0.529972   -0.740006    1.266550
C       0.724139   -2.276610    1.170199
O       0.034198   -2.804419    2.326737
C      -0.472780   -1.718976    2.957527
N      -0.275785   -0.560827    2.484493
C       0.008248   -0.055526   -0.007098
H      -0.238661    1.851837    1.155758
H      -0.468437    1.983205   -0.653735
H       1.871538    1.012931   -0.993224
H       2.718795   -0.489468    1.002717
H       2.013249    0.800208    2.010999
H       0.269329   -2.712555    0.275364
H       1.770955   -2.588851    1.226547
H      -1.030998   -1.948982    3.858709
H      -0.558895   -0.560243   -0.781853
