16

O       0.097666    1.392514    0.103255
C       0.050942   -0.009522    0.092073
C      -0.002446   -0.658997    1.524486
C      -1.510038   -0.236923    1.553982
C      -1.390537   -0.626944    0.038525
O      -2.242100   -0.155628   -0.958643
C      -1.027901   -2.113555    0.138956
C      -0.113010   -2.129776    1.114324
H      -0.427107    1.698364   -0.646080
H       0.781255   -0.442917   -0.603803
H       0.696924   -0.369448    2.305285
H      -2.183369   -0.831983    2.175006
H      -1.647272    0.834851    1.702675
H      -3.148051   -0.389002   -0.731139
H      -1.405248   -2.904760   -0.493799
H       0.462804   -2.952940    1.513317
