16

C      -0.147746    1.488958   -0.207956
O      -0.186965    0.242265    0.454639
C      -1.308769   -0.516090    0.134566
C      -1.300073   -1.334110   -1.177525
O      -1.537093   -2.559730   -0.452517
C      -1.371261   -1.905357    0.833334
C      -0.187211   -2.332480    1.558061
C       0.773884   -2.710871    2.171768
H       0.745628    2.010311    0.141749
H      -0.085497    1.373722   -1.300356
H      -1.034359    2.098334    0.026299
H      -2.231789    0.064310    0.276197
H      -2.092706   -1.131349   -1.905667
H      -0.323128   -1.332654   -1.678013
H      -2.261723   -2.053899    1.456251
H       1.629732   -3.037673    2.708952
