14

O      -0.031256    1.415407    0.008353
C       0.014775   -0.000629    0.002025
C      -1.389371   -0.504543    0.011898
C      -2.545186    0.202938    0.023389
O      -3.604373   -0.625936    0.029507
N      -3.166537   -1.933422    0.022153
C      -1.845687   -1.861650    0.011423
C      -1.041183   -3.028838    0.001476
C      -0.311515   -3.984951   -0.007250
H       0.871244    1.746276    0.002107
H       0.539104   -0.386233   -0.887404
H       0.554189   -0.393727    0.879054
H      -2.758430    1.258833    0.028376
H       0.315417   -4.842343   -0.015008
