21

C      -0.105185    1.519108   -0.018121
C      -0.014789    0.011035    0.067432
C       1.282269   -0.710613   -0.213905
C       0.718768   -0.677182    1.191226
C       1.415866    0.064856    2.339166
C       1.879032   -1.047907    3.316569
C       0.907282   -2.186382    3.068469
O      -0.468147   -1.776588    3.043090
C       0.220877   -1.957668    1.792076
H       0.822028    1.997272    0.311768
H      -0.294284    1.840991   -1.048130
H      -0.918288    1.905567    0.606140
H      -0.911076   -0.503115   -0.273336
H       1.252067   -1.644526   -0.767066
H       2.164405   -0.108125   -0.410160
H       2.248292    0.685859    2.000407
H       0.699951    0.719073    2.844271
H       2.891150   -1.394084    3.073986
H       1.886080   -0.713610    4.358423
H       1.091181   -3.178338    3.474297
H      -0.157208   -2.758497    1.160214
