14

N      -0.115933    1.288751    0.051365
C       0.020009    0.030856   -0.013683
C       1.220271   -0.833922   -0.019538
C       0.857570   -2.120569   -0.027867
C      -0.634772   -2.209013   -0.044575
C      -1.365925   -1.617711    1.131815
N      -1.149048   -0.821687   -0.079343
C      -1.270648   -3.206097   -0.871676
N      -1.753874   -4.039349   -1.509969
H       0.796671    1.742297    0.111631
H       2.228977   -0.445575    0.035739
H       1.498512   -2.991751   -0.040081
H      -2.397381   -1.905728    1.309026
H      -0.770189   -1.394027    2.012569
