17

O      -0.071130   -0.089539    0.508717
C      -0.004166    1.112975    0.391694
C       1.217305    1.847988    0.196097
C       2.222645    2.498896    0.033154
C       3.454155    3.260208   -0.159709
C       4.119948    2.977161   -1.542252
C       4.502314    4.383818   -2.029836
C       3.411611    5.237885   -1.383932
O       3.221790    4.670647   -0.090265
H      -0.911494    1.749888    0.428637
H       4.140459    3.009644    0.659539
H       4.968925    2.298843   -1.444853
H       3.396504    2.515665   -2.218719
H       5.483532    4.676603   -1.643527
H       4.523044    4.462442   -3.119345
H       3.686558    6.286542   -1.245069
H       2.479397    5.197233   -1.968994
