20

C      -0.072317    1.521277    0.030499
C       0.069804   -0.006044    0.042584
C       0.854111   -0.514478    1.213962
C       0.807646   -1.809639    1.936237
C       2.151742   -1.442140    2.607768
C       1.394649   -0.376892    3.458367
C       2.219524    0.758970    2.834107
C       2.315858   -0.208431    1.628401
N       0.180934   -0.597758    2.560953
H       0.905538    2.012302   -0.019367
H      -0.654546    1.853880   -0.833985
H      -0.577971    1.866778    0.937031
H      -0.922576   -0.470932    0.069366
H       0.549853   -0.344452   -0.885072
H       0.266393   -2.732055    1.759336
H       2.965678   -2.083577    2.935163
H       1.160467   -0.448305    4.519724
H       1.747329    1.735614    2.696563
H       3.183705    0.871687    3.340340
H       3.081551   -0.140618    0.857247
