15

N      -0.097884    1.182629   -0.496270
C       0.040271   -0.064564   -0.013428
O       1.078928   -0.605764    0.324487
C      -1.319150   -0.791085    0.080332
O      -2.367065   -0.262678   -0.254634
N      -1.177726   -2.040315    0.571092
C      -2.290677   -2.934841    0.778325
C      -2.298031   -4.102462   -0.203078
O      -2.740062   -5.188472    0.056163
H       0.705368    1.776966   -0.609557
H      -1.024821    1.500236   -0.733701
H      -0.228946   -2.302182    0.806838
H      -2.316929   -3.326631    1.799632
H      -3.203422   -2.349376    0.608247
H      -1.863639   -3.858548   -1.199216
