15

C      -0.018618    1.575377    0.010158
C       1.502784    1.921681   -0.022874
C       2.097839    0.500430   -0.023531
O       1.980851   -0.048037    1.289403
C       0.598775   -0.431133    1.391960
C       0.045132    0.031964    0.030661
O       1.183020   -0.240711   -0.807179
H      -0.536209    1.984180    0.881331
H      -0.531452    1.925390   -0.888104
H       1.779890    2.464890   -0.929761
H       1.839727    2.491344    0.844772
H       3.118602    0.374836   -0.383010
H       0.526080   -1.516809    1.524343
H       0.125306    0.070207    2.243398
H      -0.831397   -0.500926   -0.334118
