15

O       0.185237    0.140789   -0.375170
C      -0.048934    1.303611   -0.154570
C      -1.171474    2.162149   -0.174737
C      -0.715457    3.454070    0.145747
N      -1.458757    4.635301    0.267561
C      -1.067614    5.769635   -0.275876
N      -1.531281    6.979807    0.105395
H      -2.259399    7.059034    0.797412
H      -1.429485    7.757855   -0.524772
C       0.641474    3.427084    0.385763
O       1.099573    2.185056    0.227364
H      -2.147558    1.865623   -0.520203
H      -2.343058    4.594885    0.766842
H      -0.260768    5.719575   -0.995508
H       1.279568    4.159553    0.859939
