20

C      -0.031116    1.427953    0.214227
C      -0.058873   -0.056859    0.000863
N      -0.030476   -0.574264   -1.154697
C      -0.008723   -2.026327   -1.282234
C       0.439825   -2.745030   -0.005371
C      -0.298566   -2.140497    1.179761
C       0.173186   -2.627866    2.543557
O      -0.536501   -2.013883    3.598494
O      -0.112774   -0.708885    1.202822
H       0.821635    1.704218    0.842943
H       0.042831    1.932797   -0.747885
H      -0.936757    1.755725    0.735005
H      -1.011435   -2.365388   -1.576987
H       0.652753   -2.281360   -2.117530
H       0.240353   -3.820079   -0.064423
H       1.519305   -2.615335    0.138115
H      -1.378098   -2.326897    1.091428
H      -0.001832   -3.705773    2.624037
H       1.258395   -2.453587    2.626669
H      -0.470411   -1.063627    3.449786
