13

O       0.016251    0.099959    0.376459
C       0.022590    1.282229    0.183048
C      -1.100480    2.292744    0.333588
O      -0.666724    3.441261   -0.397271
C       0.753763    3.575241   -0.264638
C       1.150557    4.243829    0.972153
C       1.468103    4.746708    2.016572
C       1.254824    2.116595   -0.275725
O       2.333215    1.694534   -0.569693
H      -2.035822    1.935978   -0.102502
H      -1.267010    2.523979    1.397048
H       1.117429    4.114628   -1.143423
H       1.755677    5.210350    2.928574
