23

C      -0.072621    1.532154   -0.144751
C       0.047656    0.022564    0.003853
O       0.709159   -0.453001   -1.172166
C       0.780618   -1.850700   -1.205853
O       1.503120   -2.380488   -0.127404
C       0.893837   -2.021522    1.103678
C       0.789436   -0.489269    1.272029
C       2.200890    0.110082    1.383873
C      -0.026100   -0.195301    2.538743
H       0.911940    1.998361   -0.230771
H      -0.635950    1.765701   -1.052149
H      -0.596589    1.972048    0.707715
H      -0.968473   -0.412803    0.026425
H      -0.242285   -2.277258   -1.213357
H       1.312391   -2.126652   -2.118820
H      -0.113091   -2.470458    1.165109
H       1.509260   -2.459507    1.895346
H       2.776008   -0.078880    0.475256
H       2.167724    1.190014    1.555428
H       2.738585   -0.338642    2.226314
H       0.431290   -0.676491    3.410779
H      -0.073436    0.877542    2.747375
H      -1.053341   -0.568337    2.454733
