21

C       0.048590    1.537952   -0.125588
C       0.013230    0.008317   -0.004390
O      -1.332086   -0.434629    0.045847
C       0.846732   -0.633634   -1.153534
C       2.224929   -0.727980   -0.549378
C       2.182607   -0.618654    0.777823
C       0.754925   -0.501336    1.280786
C       0.574718    0.356804    2.531590
O       0.229459   -1.814164    1.541591
H       1.071554    1.923980   -0.117384
H      -0.410287    1.839794   -1.075185
H      -0.513259    2.006968    0.685464
H      -1.817481    0.030279   -0.643012
H       0.444806   -1.628083   -1.379761
H       0.815366   -0.045044   -2.078068
H       3.121809   -0.881659   -1.140010
H       3.031563   -0.672769    1.452185
H       1.000025    1.357901    2.417109
H      -0.488040    0.443701    2.773514
H       1.075782   -0.120985    3.381198
H       0.862134   -2.262798    2.112253
