27

C      -0.458692    1.124231    0.429837
C      -0.084855   -0.348495    0.177277
C      -1.384595   -1.163481    0.076614
C       0.858451   -0.485031   -1.060345
C       2.255826    0.034311   -0.687020
O       2.979265    0.362659   -1.868902
C       0.879034   -1.905463   -1.695511
C       1.524433   -1.936014   -3.090985
C       1.508110   -2.980557   -0.793417
H       0.411880    1.776457    0.535884
H      -1.062355    1.512297   -0.399309
H      -1.053279    1.220898    1.344273
H       0.461745   -0.711759    1.060257
H      -1.949879   -0.898295   -0.824902
H      -1.211531   -2.241896    0.059070
H      -2.026079   -0.949940    0.938131
H       0.474206    0.196583   -1.832865
H       2.163819    0.921944   -0.046770
H       2.789528   -0.725946   -0.096081
H       3.849202    0.677261   -1.606161
H      -0.170082   -2.183789   -1.842984
H       1.397804   -2.926707   -3.542472
H       1.060440   -1.201730   -3.757703
H       2.590612   -1.706898   -3.048102
H       1.093568   -2.972172    0.219928
H       1.334287   -3.977122   -1.212732
H       2.592825   -2.854364   -0.710371
