16

C       0.004694    1.505215    0.063988
C       0.024868    0.009653    0.020556
C      -0.028115   -0.803269   -1.073717
N       0.017292   -2.125106   -0.650863
C      -0.016115   -3.226108   -1.489919
O       0.023662   -4.370069   -1.115746
C       0.100989   -2.161312    0.740197
C       0.106790   -0.865765    1.167740
O       0.178546   -0.479353    2.467850
H       0.912341    1.914028    0.526877
H      -0.063095    1.926109   -0.942202
H      -0.852050    1.887053    0.634434
H      -0.094502   -0.566515   -2.123909
H      -0.084151   -2.922500   -2.550769
H       0.146536   -3.099002    1.263474
H       0.166664    0.481703    2.509144
