19

C      -0.000682    1.494154   -0.012449
C      -0.043240    0.039116   -0.010835
C      -0.083836   -1.165988   -0.023194
C      -0.084390   -2.607707   -0.032527
O       0.869306   -3.197307   -0.885816
C      -0.381667   -3.436970    1.207821
C      -1.449930   -2.769306    2.077676
C      -2.425496   -2.778039    0.850879
C      -1.335919   -3.446683    0.009287
H       0.660770    1.880691    0.771019
H       0.361665    1.877027   -0.972970
H      -0.996829    1.918249    0.155722
H       1.738505   -2.906384   -0.588348
H       0.339274   -4.185670    1.514646
H      -1.798547   -3.413589    2.887591
H      -1.187762   -1.790474    2.489275
H      -3.286681   -3.429206    1.013193
H      -2.776124   -1.805709    0.494017
H      -1.471766   -4.201493   -0.755726
