18

C      -0.143180    1.580175    0.087675
C       0.030034    0.077547   -0.014290
C       0.803494   -0.612184   -1.153771
C       2.112437   -0.145532   -0.454699
C       3.209702   -1.190306   -0.566578
C       2.328116   -2.431591   -0.385077
O       2.624384   -3.595410   -0.424658
C       0.969965   -1.807547   -0.166347
N       1.213205   -0.565067    0.742939
H       0.731571    2.146900   -0.239064
H      -0.993689    1.896345   -0.525553
H      -0.358860    1.859195    1.124270
H      -0.907552   -0.417527    0.262434
H       0.576198   -0.658922   -2.225519
H       2.404100    0.902181   -0.468445
H       3.730484   -1.193876   -1.528892
H       3.954970   -1.114529    0.231583
H       0.133084   -2.449485    0.104307
