16

F      -0.199207    0.090925   -0.203893
C      -0.001209    1.399252    0.042598
F       1.323783    1.586384    0.177595
F      -0.389493    2.062149   -1.061760
C      -0.743749    1.846426    1.252495
C      -0.306543    3.031008    2.065601
C      -0.354304    1.679655    2.722339
C      -1.800275    1.304533    3.074020
C      -2.196250    1.466875    1.567382
H       0.687920    3.400519    1.842489
H      -1.031646    3.799190    2.323061
H       0.539181    1.219389    3.125107
H      -1.906953    0.274445    3.418455
H      -2.298904    1.966658    3.788118
H      -2.948552    2.222350    1.324202
H      -2.484700    0.517860    1.113113
