11

N      -0.108999    1.582569   -0.043326
C       1.364765    1.311947    0.008870
C       1.257677    0.026065    0.897615
O       1.995405   -0.820089   -0.029533
C       1.225179    0.055705   -0.900704
C      -0.034749    0.086192    0.013958
H      -0.430994    1.953933    0.853819
H       2.130634    2.087521   -0.001720
H       1.391009   -0.121716    1.970364
H       1.313491   -0.049605   -1.980327
H      -0.904527   -0.570806    0.009315
