18

C      -0.112311    1.601072   -0.019934
C      -0.006269    0.088720    0.012242
C       1.237822   -0.612853   -0.612662
N       2.050936   -0.050068    0.533230
C       0.789761   -0.606599    1.158254
C       0.902307   -1.885756    0.249092
N      -0.294590   -2.649306   -0.051049
C       2.058447   -2.749290    0.544660
N       2.915511   -3.496042    0.764151
H       0.840199    2.075417    0.219471
H      -0.433159    1.937723   -1.011834
H      -0.865836    1.943754    0.697639
H      -0.947304   -0.404466   -0.224106
H       1.598593   -0.600326   -1.642549
H       2.850750   -0.656680    0.737734
H       0.617357   -0.586631    2.235685
H      -0.132789   -3.258394   -0.848244
H      -0.532324   -3.252942    0.731123
