21

O      -0.031053    1.375687    0.157248
C       0.079206   -0.010401    0.084502
C       0.862895   -0.776257   -1.040106
C       0.756674   -1.944521   -0.012188
C       0.916180   -0.858368    1.089439
C      -0.763561   -2.210119   -0.046687
C      -1.517779   -2.528241    1.277891
C      -2.025607   -1.054065    1.347044
C      -1.276355   -0.730410    0.024144
H       0.853368    1.747757    0.234402
H       0.380409   -0.896834   -2.014786
H       1.885939   -0.409082   -1.162632
H       1.428385   -2.801435   -0.053149
H       1.947999   -0.500852    1.155407
H       0.527600   -1.042710    2.092776
H      -1.056542   -2.812236   -0.909661
H      -2.318171   -3.262142    1.157065
H      -0.886394   -2.855793    2.108679
H      -3.110949   -0.960275    1.266566
H      -1.702394   -0.475209    2.216209
H      -1.891066   -0.345919   -0.792075
