15

C       0.082158    1.450525    0.001704
N       0.234872    0.009086    0.089343
C       0.694625   -0.632492   -0.891579
O       1.139491    0.003029   -2.044526
N       1.219739   -0.750616   -3.279001
N       1.163705   -1.971584   -3.213094
C       1.063033   -2.631300   -1.939034
C       1.243997   -4.108620   -2.019996
N       0.822353   -2.018931   -0.848404
H       1.016305    1.945767    0.296926
H      -0.177115    1.805673   -1.002678
H      -0.691104    1.763159    0.707749
H       2.217659   -4.343605   -2.463613
H       1.170276   -4.548813   -1.026390
H       0.484725   -4.542172   -2.679862
