18

C       0.376492    1.601563   -0.485855
C       0.191237    0.185932   -0.200264
C       0.039469   -0.986539    0.029092
C      -0.156415   -2.398408    0.318026
C       0.321226   -2.823930    1.737418
N      -0.487933   -4.000816    1.989979
C      -1.650101   -4.069186    1.263370
O      -2.522058   -4.898415    1.392712
C      -1.623698   -2.888475    0.287358
H       1.104424    1.753394   -1.290378
H      -0.563543    2.070601   -0.796649
H       0.739684    2.141182    0.395717
H       0.410609   -2.997726   -0.405268
H       1.390404   -3.053422    1.753853
H       0.131614   -2.021804    2.463637
H      -0.364700   -4.594681    2.794917
H      -2.305030   -2.117109    0.662433
H      -1.969953   -3.186809   -0.702699
