22

C       0.499310   -1.309425    1.256995
C      -0.072890   -0.275377    0.274554
N      -1.435359   -0.509897   -0.221738
C      -1.678554   -1.802663   -0.863765
C      -0.838587   -2.067895   -2.117280
O       0.469435   -2.566443   -1.860350
C      -2.447129   -0.155900    0.758541
C      -2.543560    1.353746    0.931674
O      -2.869057    1.905992    1.949183
H       1.474657   -0.972435    1.622588
H      -0.149725   -1.445606    2.127599
H       0.636931   -2.278645    0.771472
H      -0.070451    0.713845    0.747854
H       0.598446   -0.177749   -0.587604
H      -1.549591   -2.661296   -0.181521
H      -2.730056   -1.804519   -1.175711
H      -1.341105   -2.851826   -2.694556
H      -0.813169   -1.162498   -2.739418
H       1.060279   -1.822558   -1.720771
H      -3.428329   -0.474059    0.378774
H      -2.331551   -0.619467    1.752342
H      -2.304443    1.916786    0.000202
