20

O       0.001208    1.416670    0.107871
C      -0.016259    0.005269   -0.007272
C      -1.425741   -0.486548   -0.046870
C      -2.533731    0.254639   -0.003092
C      -3.787706   -0.581033   -0.042726
C      -3.254548   -1.994288   -0.325708
C      -4.080979   -3.206001   -0.126811
N      -3.735035   -2.757241   -1.490680
C      -1.735161   -1.964695   -0.118784
H       0.917819    1.705464    0.100084
H       0.507725   -0.330599   -0.920156
H       0.510210   -0.473771    0.838386
H      -2.542923    1.334128    0.073845
H      -4.334404   -0.531928    0.910092
H      -4.494265   -0.250757   -0.816966
H      -3.617699   -4.141888    0.176753
H      -5.102833   -3.077487    0.223527
H      -4.535422   -2.285991   -1.907144
H      -1.226433   -2.478229   -0.943237
H      -1.436597   -2.477102    0.807520
