17

C      -0.397486    1.342213    0.019278
C       0.077275   -0.080258    0.085354
O      -0.580111   -0.957376    1.000540
C       0.822193   -0.719138    1.176756
C       1.700564   -1.809671    0.605439
N       1.124791   -2.041987   -0.724118
C       0.510211   -0.802440   -1.201685
C      -0.605483   -1.072858   -2.121142
N      -1.474894   -1.245176   -2.861946
H       0.357402    1.988430   -0.440453
H      -1.313299    1.412871   -0.576640
H      -0.613646    1.712167    1.023836
H       1.109072   -0.196071    2.084738
H       2.741696   -1.443894    0.593595
H       1.672832   -2.732857    1.195126
H       1.775476   -2.439094   -1.387757
H       1.205183   -0.123914   -1.728658
