17

O      -0.022353    1.388865   -0.032395
C       0.010446    0.003897   -0.004259
C      -0.380654   -0.743309    1.238872
C      -1.301083   -0.793116    0.025495
O      -2.564941   -0.257625    0.117114
C      -1.119007   -1.915212   -0.932453
O      -2.050882   -2.464447   -1.477958
C       0.368351   -2.104190   -1.209255
C       0.984350   -0.709171   -0.943738
H       0.570492    1.725697    0.647734
H       0.169742   -1.619154    1.570577
H      -0.801919   -0.131568    2.030406
H      -3.106368   -0.794605   -0.482325
H       0.768016   -2.863034   -0.525791
H       0.522305   -2.471211   -2.225271
H       1.036768   -0.134254   -1.873522
H       1.996852   -0.764624   -0.528206
