22

C      -0.552166    1.806018   -0.333552
C      -0.370527    0.285723   -0.313659
C      -1.661728   -0.457425    0.053251
C      -1.552870   -1.990579    0.022302
N      -1.026566   -2.739742    1.203660
C      -0.172658   -2.122793    2.192959
C      -2.358667   -3.213688    1.624072
C      -2.898962   -2.686731    0.289689
O      -3.939817   -2.749004   -0.292813
H       0.377546    2.314067   -0.607452
H      -1.320778    2.103008   -1.055568
H      -0.859820    2.181479    0.648758
H      -0.031991   -0.058622   -1.299480
H       0.427780    0.023776    0.390041
H      -2.023171   -0.124327    1.034927
H      -2.446399   -0.186548   -0.665536
H      -1.065350   -2.298361   -0.913471
H      -0.606584   -1.229240    2.678362
H       0.041971   -2.852453    2.981027
H       0.782916   -1.837187    1.742758
H      -2.439445   -4.290052    1.814702
H      -2.802046   -2.671490    2.478143
