23

C       0.047442    1.515538   -0.099158
C      -0.027813   -0.012958   -0.119989
C      -1.453033   -0.527216    0.026983
O      -1.434997   -1.939534   -0.004636
C      -2.711713   -2.519560    0.120363
C      -2.562226   -4.034183    0.048501
C      -3.910906   -4.759631    0.177980
C      -3.738463   -6.260736    0.228973
O      -4.292811   -7.046700   -0.494239
H       1.080339    1.859030   -0.205249
H      -0.533872    1.955807   -0.916865
H      -0.342350    1.922559    0.840456
H       0.386946   -0.401856   -1.056983
H       0.579368   -0.435073    0.688982
H      -1.893600   -0.171496    0.975261
H      -2.088761   -0.135131   -0.786464
H      -3.179067   -2.228271    1.078088
H      -3.380427   -2.162537   -0.682363
H      -2.083121   -4.296623   -0.901183
H      -1.881500   -4.356484    0.845574
H      -4.395731   -4.456154    1.118312
H      -4.588741   -4.514927   -0.645108
H      -3.028327   -6.609678    1.016347
