17

C      -0.036183    1.505256    0.012548
C       0.111383    0.010900   -0.001382
N       0.236403   -0.726843    1.041896
O       0.218232    0.037413    2.202424
C       0.117416   -0.695614   -1.292200
N       0.003513   -0.112224   -2.421518
C       0.057384   -1.165130   -3.442114
C       0.228154   -2.480362   -2.638966
O       0.253034   -2.045565   -1.262169
H       0.826174    1.962494    0.507945
H      -0.124006    1.885051   -1.003625
H      -0.918948    1.789311    0.594077
H       0.318634   -0.630271    2.890185
H      -0.860184   -1.151750   -4.040358
H       0.891068   -0.977653   -4.127558
H      -0.603204   -3.180179   -2.761745
H       1.164914   -3.004009   -2.849352
