14

O       0.150776    1.310609   -0.418372
C      -0.000144    0.023045    0.138196
C      -1.427352   -0.507588    0.037940
C      -1.890708   -1.127061   -1.269903
C      -1.652790   -2.007356   -0.079975
C      -2.383375    0.266462    0.787596
N      -3.110822    0.927435    1.399093
H      -0.347619    1.932639    0.123579
H       0.656944   -0.638589   -0.435518
H       0.327720   -0.008310    1.187802
H      -2.913244   -0.946507   -1.578102
H      -1.165569   -1.128406   -2.075842
H      -0.764915   -2.630049   -0.060358
H      -2.510483   -2.426830    0.431666
