19

C      -0.190899    1.391979   -0.059871
O      -0.201267   -0.014183   -0.123446
C       0.804896   -0.530153   -0.966602
C       0.700540   -2.039910   -0.970048
C       0.638695   -2.704650    0.385718
O      -0.171723   -2.590536   -1.963984
C       1.241594   -2.790780   -2.129010
C       1.887274   -2.163973   -3.252678
C       2.457159   -1.676010   -4.192244
H       0.763947    1.775796    0.333872
H      -0.360987    1.846129   -1.048431
H      -0.997722    1.694222    0.611861
H       0.695570   -0.151999   -1.992315
H       1.804470   -0.231453   -0.603032
H      -0.231963   -2.339612    0.935231
H       0.562683   -3.789187    0.279121
H       1.532101   -2.468101    0.973200
H       1.567401   -3.813877   -1.938307
H       2.952660   -1.240451   -5.024687
