15

C      -0.033288    1.536731    0.019417
C      -0.008591    0.037147   -0.004113
C      -0.035837   -0.703193   -1.128058
O      -0.013429   -2.041912   -1.145303
C       0.042707   -2.772999    0.076662
N       0.062718   -4.036120    0.031978
N       0.071439   -2.051031    1.243041
C       0.047790   -0.761024    1.200862
O       0.076822   -0.079133    2.352370
H       0.859114    1.942420    0.507256
H      -0.079775    1.938187   -0.996573
H      -0.898307    1.912205    0.575850
H      -0.078688   -0.284550   -2.128457
H       0.033910   -4.355951   -0.934593
H       0.113163   -0.742507    3.059115
