20

C       0.326236    1.652158   -0.219972
C       0.067345    0.162914   -0.047834
C       0.926838   -0.859328   -0.858999
C       1.130268   -1.710344    0.426200
C       2.498670   -1.456523    1.133652
C       1.855749   -0.232439    1.880689
C       0.465931   -0.565365    1.267109
C       2.936558   -2.529130    2.011860
N       3.266890   -3.386348    2.714850
H       1.382498    1.904250   -0.076861
H       0.048536    1.979683   -1.227845
H      -0.257812    2.243364    0.494124
H      -0.993586   -0.036723   -0.234385
H       0.406409   -1.363815   -1.675675
H       1.857706   -0.443608   -1.259547
H       0.766776   -2.736692    0.407921
H       3.317603   -1.208415    0.451567
H       1.895217   -0.323203    2.966636
H       2.285484    0.731281    1.600970
H      -0.327687   -0.743751    1.993373
