21

C       0.784527    1.568552   -0.155016
C       0.167243    0.189754    0.048832
C       0.707577   -0.941412   -0.884260
O       1.359390   -0.599548   -2.081245
C       1.532602   -1.548979    0.295726
C       3.035524   -1.298001    0.251989
C       0.695089   -0.644175    1.278113
C       1.382112    0.047308    2.348391
C       1.962429    0.627964    3.228507
H       1.877594    1.558006   -0.095656
H       0.499987    1.968555   -1.133187
H       0.436390    2.263121    0.614640
H      -0.922309    0.286375    0.036245
H      -0.098191   -1.616829   -1.184830
H       2.084110   -0.000849   -1.874675
H       1.358408   -2.618037    0.448658
H       3.286776   -0.236515    0.159546
H       3.511381   -1.653019    1.170421
H       3.482350   -1.829146   -0.594188
H      -0.126619   -1.229000    1.703676
H       2.467391    1.135782    4.012365
