20

C       0.575002    1.540865    0.017655
C       0.147350    0.075248   -0.042590
O       1.040086   -0.568145   -0.926896
C       0.599327   -1.781846   -1.494086
C       0.710445   -3.000785   -0.616480
C       0.636241   -3.061181    0.712291
C       0.379387   -1.962628    1.676966
N       1.421998   -0.928006    1.927778
C       0.133765   -0.531102    1.354268
H       1.590538    1.607983    0.417173
H       0.562483    1.979431   -0.983058
H      -0.095623    2.118059    0.661722
H      -0.880034    0.009548   -0.444805
H      -0.440077   -1.678136   -1.858371
H       1.223703   -1.934004   -2.382415
H       0.871643   -3.929526   -1.161616
H       0.751894   -4.038333    1.177700
H      -0.138866   -2.316117    2.568210
H       1.454389   -0.706248    2.919779
H      -0.573880   -0.021884    2.011250
