21

O      -0.131555    1.386360    0.197683
C      -0.001883    0.002600   -0.002962
C      -0.443614   -0.559195   -1.332533
C      -1.299346   -0.749434   -0.087117
C      -1.441245   -2.057132    0.647654
C      -1.105717   -3.397860    0.044141
C      -0.185756   -2.788057    1.075871
C       1.154803   -2.176925    0.676517
C       1.143307   -0.638357    0.761318
H       0.626512    1.815333   -0.215507
H      -0.815545    0.152166   -2.061419
H       0.080136   -1.406572   -1.761019
H      -2.183723   -0.121350   -0.063054
H      -2.257218   -2.055865    1.363753
H      -1.710585   -4.252402    0.328066
H      -0.762370   -3.423148   -0.985470
H      -0.208526   -3.236485    2.064125
H       1.945263   -2.563372    1.327329
H       1.431806   -2.485162   -0.338073
H       2.100661   -0.241950    0.395507
H       1.052714   -0.324352    1.809143
