12

N       0.053324   -1.162273    0.112111
C       0.066654   -0.008365    0.035886
C       0.055520    1.413458   -0.111037
C      -0.726942    2.263884   -1.128377
C       0.439218    3.312592   -1.071991
C       1.154142    2.409190   -0.059174
O       0.276067    2.224645    1.049268
H      -0.815217    1.784460   -2.104450
H      -1.709373    2.586616   -0.780496
H       0.970222    3.395635   -2.022082
H       0.192355    4.307711   -0.697835
H       2.213212    2.262830    0.117201
