18

C      -0.134866    1.564970   -0.098516
C      -0.349805    0.073240    0.177066
C       0.694155   -0.501078    1.118765
C       0.793993   -2.083653    1.262011
C       2.194144   -1.913691    0.691591
N       3.395422   -2.328734    0.330139
C       3.965590   -1.126182   -0.020515
N       3.211841   -0.026743    0.111134
N       2.073072   -0.599322    0.564423
H       0.851789    1.741006   -0.537596
H      -0.889619    1.945474   -0.792248
H      -0.201114    2.151751    0.823971
H      -1.336585   -0.093602    0.626943
H      -0.328012   -0.492620   -0.762022
H       0.689396    0.016520    2.083526
H       0.741609   -2.452712    2.288183
H       0.087328   -2.633266    0.636397
H       4.978027   -1.057839   -0.390933
