18

O      -0.022660    1.295005    0.470459
C       0.022392   -0.002051   -0.106702
C      -1.352911   -0.599664   -0.187195
N      -2.050442   -1.000009    1.058913
C      -1.755335   -2.011150   -0.006958
C      -2.949837   -2.230472   -0.883905
C      -3.301670   -1.095304   -1.489918
C      -2.359650    0.049084   -1.150640
O      -2.984979    1.181866   -0.553696
H      -0.828646    1.724160    0.153353
H       0.471467    0.025861   -1.113494
H       0.679178   -0.611590    0.526388
H      -1.350868   -1.071565    1.797901
H      -1.048628   -2.804418    0.210935
H      -3.466645   -3.180170   -0.953694
H      -4.168688   -0.948639   -2.123147
H      -1.859572    0.437422   -2.046709
H      -3.298272    0.861883    0.305709
