12

N       0.169435    0.882288   -0.774365
C      -0.071729    0.038933    0.124012
O       0.832690   -0.141981    1.199515
N       1.513721   -1.328474    1.368330
C       1.045884   -2.441234    0.933792
C      -0.291523   -2.854843    0.424356
O      -0.504932   -4.020992    0.167261
C      -1.410532   -1.859808    0.359697
N      -1.301453   -0.605056    0.211721
H       1.115600    1.250997   -0.676845
H       1.719440   -3.280228    1.095016
H      -2.407072   -2.301640    0.394324
