16

C      -0.085953    1.584968    0.018830
C      -0.035748    0.072079   -0.028637
C       1.234270   -0.632653   -0.589640
O       1.988907   -0.219234    0.622875
C       0.687723   -0.690499    1.126867
C       0.427683   -0.666420    2.542463
N       0.171915   -0.680804    3.670112
C       0.869221   -1.929507    0.163764
O      -0.220633   -2.651790   -0.298378
H       0.877048    1.998814    0.324267
H      -0.344583    1.987975   -0.965764
H      -0.851372    1.923264    0.724524
H      -0.976982   -0.387262   -0.335326
H       1.731802   -0.511557   -1.550165
H       1.736160   -2.537131    0.439452
H      -0.360243   -3.409895    0.278139
