20

C      -0.059642    1.531839    0.073642
C       0.022788    0.014619   -0.041165
C       1.096046   -0.498735   -1.059612
C       1.881472   -1.119695    0.103834
C       0.836255   -0.634992    1.095388
C       1.063011   -2.120834    0.899224
C       0.071377   -3.083004    0.314666
N       0.091000   -4.323267    0.898392
O      -0.708980   -2.820452   -0.584843
H       0.930558    1.973845    0.237142
H      -0.475904    1.969812   -0.839939
H      -0.700288    1.832000    0.910791
H      -0.968847   -0.414956   -0.187513
H       0.747960   -1.182098   -1.834217
H       1.645609    0.328195   -1.517914
H       2.961594   -1.134135    0.197199
H       0.972974   -0.203804    2.081832
H       1.642927   -2.540370    1.718839
H       0.813736   -4.605047    1.536604
H      -0.487504   -5.037054    0.485875
