21

C      -0.073722    1.483477    0.064410
C       1.296238    0.832020    0.037493
C       2.174755    0.847810    1.285493
O       2.512208   -0.421884    1.824916
C       1.455254   -1.247544    2.292526
C       0.781617   -2.096193    1.175240
C      -0.316959   -0.991730    1.068253
C       0.075823   -0.565091    2.511084
C       0.040177   -0.011824   -0.031491
H      -0.391589    1.915035    1.008807
H      -0.410981    2.036255   -0.805767
H       1.847008    0.912146   -0.894938
H       3.139345    1.301772    1.039703
H       1.721581    1.478927    2.061825
H       1.869582   -1.801283    3.139732
H       1.387500   -2.290788    0.287354
H       0.392137   -3.040520    1.568024
H      -1.348128   -1.335679    0.941223
H      -0.498180   -1.135290    3.246506
H       0.032202    0.486533    2.797441
H      -0.157744   -0.424268   -1.018904
