17

O      -0.025458    1.489052   -0.041812
C       0.024764    0.107002   -0.033420
C       0.209749   -0.763216    1.365663
C      -0.410324   -1.814214    0.372798
O      -1.444211   -2.822656    0.185444
C      -1.996998   -1.925834   -0.864850
C      -1.305887   -0.724811   -0.148989
C       0.715152   -1.922215   -0.669306
C       0.988998   -0.649900   -0.952473
H       0.871425    1.832077    0.038094
H       1.233328   -0.916419    1.717679
H      -0.454584   -0.419946    2.161277
H      -1.602900   -2.199980   -1.847373
H      -3.088733   -1.936968   -0.856282
H      -1.988412   -0.389493    0.635784
H       1.121844   -2.848592   -1.049191
H       1.703189   -0.201828   -1.630367
