14

N      -0.483716   -0.975660   -0.729702
C      -0.239603    0.088200   -0.348615
C       0.073458    1.426597    0.139484
C      -0.446336    1.710124    1.584066
C       0.617130    2.626839    2.137768
C       1.714824    2.644514    1.385231
C       1.601718    1.743096    0.180006
H      -0.401971    2.144503   -0.537152
H      -1.447034    2.152892    1.570675
H      -0.519217    0.786227    2.172029
H       0.485480    3.164034    3.069894
H       2.619768    3.198401    1.606711
H       2.196528    0.829947    0.310225
H       1.940099    2.207421   -0.751402
