22

C       0.102347    1.611969   -0.106678
C       0.080743    0.083983   -0.023761
C       0.766586   -0.607964   -1.192461
N       2.245221   -0.661240   -1.078411
C       1.418807   -1.844897   -0.727154
C       1.250802   -1.965884    0.776446
O       2.418300   -2.426319    1.431031
C       0.728997   -0.556271    1.250335
C       1.819950    0.285616    1.924382
H       1.126296    1.992686   -0.145437
H      -0.415626    1.953078   -1.010000
H      -0.399555    2.069085    0.752237
H      -0.968943   -0.240174   -0.058888
H       0.332650   -0.532266   -2.185597
H       2.642685   -0.799060   -2.004232
H       1.495656   -2.739716   -1.336298
H       0.489064   -2.725078    0.987041
H       3.139628   -1.866652    1.119674
H      -0.056439   -0.716395    1.996514
H       2.622890    0.542841    1.229469
H       1.402789    1.216054    2.320327
H       2.250826   -0.269113    2.762059
