12

C       0.210455    0.512493    0.846220
C      -0.085408    0.403976   -0.634210
O       0.608029    0.904327   -1.490073
C      -1.324560   -0.351419   -1.039916
C      -1.566334   -1.732624   -0.572275
O      -2.294310   -0.642233   -0.030383
H       1.169232    1.012042    0.986395
H      -0.585833    1.082098    1.336722
H       0.226729   -0.470608    1.327242
H      -1.720689   -0.060597   -2.011362
H      -2.128412   -2.407704   -1.215275
H      -0.856304   -2.209957    0.100820
