18

C      -0.098662    1.377388    0.452622
C      -0.155856   -0.113612    0.128114
C      -1.581393   -0.647122    0.077705
O      -2.549074   -0.025680    0.447460
N      -1.697105   -1.904581   -0.525504
C      -0.996911   -3.116932   -0.186140
C      -2.503227   -3.013750   -0.047148
C      -3.091088   -2.994107    1.264893
C      -3.594837   -3.010653    2.355582
H       0.938734    1.716123    0.523409
H      -0.601897    1.964784   -0.319940
H      -0.601645    1.586194    1.399311
H       0.335948   -0.340280   -0.825029
H       0.389629   -0.693435    0.885706
H      -0.573753   -3.681400   -1.013390
H      -0.427923   -3.146302    0.740015
H      -3.112736   -3.482207   -0.816822
H      -4.045142   -3.003976    3.317423
