19

C      -0.088956    1.582177    0.092673
C      -0.024793    0.041275    0.041159
C       0.724222   -0.508303    1.274870
C      -1.383023   -0.509315    0.018234
C      -2.492911   -0.970387    0.028975
C       0.702635   -0.433843   -1.270107
O       0.018628   -0.019267   -2.443077
C       2.108485   -0.019517   -1.306170
C       3.248758    0.357198   -1.372250
H       0.920214    2.005137    0.084383
H      -0.649490    1.976999   -0.758631
H      -0.595639    1.908934    1.004088
H       0.189257   -0.238484    2.188968
H       0.795156   -1.599455    1.236357
H       1.734930   -0.095079    1.323672
H      -3.475305   -1.373461    0.025309
H       0.653605   -1.528727   -1.280718
H       0.291827    0.882561   -2.641244
H       4.262008    0.670925   -1.431958
