18

C      -0.063913    1.574049    0.032057
C       0.027046    0.049297    0.024651
C      -1.347745   -0.576834   -0.220804
C       1.127825   -0.614615   -0.860784
N       1.696748   -1.388070    0.301413
C       2.189797   -0.364633    1.240006
C       0.739065   -0.627228    1.206783
H       0.906191    2.043586    0.218741
H      -0.431902    1.944352   -0.931970
H      -0.758335    1.921207    0.805831
H      -1.752703   -0.261645   -1.188934
H      -1.291559   -1.670020   -0.216192
H      -2.061175   -0.273003    0.554092
H       0.736577   -1.296617   -1.619207
H       1.854607    0.059510   -1.328293
H       2.753415   -0.785292    2.067638
H       2.598055    0.562730    0.843514
H       0.225961   -1.123178    2.026918
