16

N       0.033233    1.396993   -0.188346
C      -0.068665    0.020966   -0.065354
C      -1.112936   -0.855581   -0.104355
C      -0.527573   -2.170135   -0.006006
C      -1.248405   -3.484965   -0.043210
C      -1.587180   -3.902510   -1.468423
O      -1.426618   -5.009837   -1.909393
C       0.812992   -1.981563    0.081465
O       1.106831   -0.638130    0.048407
H       0.829361    1.777944    0.306689
H      -0.816651    1.881327    0.063722
H      -2.160440   -0.609791   -0.178832
H      -0.667885   -4.289076    0.416054
H      -2.198681   -3.406400    0.504499
H      -2.005629   -3.083283   -2.096240
H       1.657397   -2.641764    0.179754
