18

C      -1.559568   -0.313770    0.162093
C      -0.077738    0.095123    0.055689
C       0.719535   -0.387597    1.288280
C       2.157994    0.157405    1.304043
O       2.211528    1.573687    1.326126
C       2.916547   -0.418382    2.432629
N       3.485685   -0.849891    3.341146
C       0.521834   -0.406908   -1.180288
C       1.019409   -0.841924   -2.184937
H      -2.007078    0.109072    1.066932
H      -2.122294    0.046039   -0.702576
H      -1.660522   -1.402400    0.203303
H      -0.017946    1.190548    0.039716
H       0.206133   -0.060737    2.200960
H       0.749555   -1.482224    1.308479
H       2.655586   -0.136354    0.373428
H       1.875251    1.876213    2.177954
H       1.453044   -1.212457   -3.080977
