20

C       0.008529    1.433068   -0.004477
N       0.014625   -0.007577   -0.007672
C      -0.012522   -0.798873   -1.102929
C      -0.000665   -2.138341   -0.832474
C       0.038648   -2.293046    0.603109
O       0.061026   -3.287272    1.305924
C       0.049907   -0.846274    1.200936
C       1.341228   -0.642925    2.000955
C      -1.197724   -0.651354    2.069402
H       0.907147    1.842364    0.474154
H      -0.019290    1.793023   -1.036163
H      -0.867872    1.835005    0.519496
H      -0.040612   -0.328900   -2.080273
H      -0.017433   -2.937450   -1.555951
H       2.219094   -0.718562    1.352501
H       1.358831    0.329395    2.504440
H       1.406357   -1.430252    2.756594
H      -1.216940   -1.439152    2.827113
H      -1.194503    0.320784    2.573531
H      -2.108759   -0.732657    1.469169
