11

O      -0.015156    0.116584   -0.600522
C      -0.003754    1.266933   -0.223975
C       1.252588    1.905894    0.208198
N       2.230111    2.423186    0.545424
C      -1.209593    2.131345   -0.164712
C      -2.038149    2.174057   -1.423046
N      -2.514185    1.465808   -0.249793
H      -1.150742    3.010664    0.468156
H      -2.554015    3.099981   -1.657689
H      -1.672452    1.603295   -2.271881
H      -2.344292    0.466244   -0.366219
