17

C       0.050787    1.567324   -0.093702
C      -0.069331    0.040917    0.051921
C       0.667899   -0.503606    1.246647
C       0.056626   -0.978884    2.350677
O       0.713054   -1.445647    3.418060
C       2.115104   -1.441405    3.440914
N       2.634816   -1.858018    4.515840
N       2.792092   -0.999563    2.308810
C       2.108292   -0.562847    1.303199
H       1.096716    1.878373   -0.183871
H      -0.479123    1.914856   -0.985557
H      -0.372432    2.076916    0.777270
H      -1.126454   -0.238173    0.124938
H       0.310404   -0.440236   -0.858638
H      -1.018920   -1.037693    2.485087
H       3.647338   -1.817805    4.413127
H       2.679629   -0.227926    0.435077
