16

O      -0.762630    0.810222    0.553030
C       0.056140    1.021086   -0.307427
C       1.263951    1.904152   -0.163300
C       1.165851    3.426925   -0.562981
C       0.351433    3.658330    0.741103
C       1.518053    2.706027    1.146111
C       2.447839    3.653800    0.308212
C       3.731007    3.162906   -0.168655
N       4.757832    2.786822   -0.544872
H      -0.031087    0.537592   -1.307387
H       2.131866    1.394079   -0.596443
H       0.987515    3.833553   -1.557967
H       0.386081    4.669310    1.153697
H      -0.649427    3.236500    0.785809
H       1.739034    2.298477    2.130932
H       2.555403    4.664959    0.708217
