18

C       0.291901    1.463063   -0.021552
C       0.065912   -0.009410    0.047054
C      -0.957201   -0.725023    0.847921
C       0.513021   -1.069183    1.069332
C       1.020237   -1.827794   -0.152239
O       0.494163   -0.822601   -1.055086
C       1.156570   -0.804934    2.377777
N       2.284839   -1.535850    2.642897
O       0.735240    0.043480    3.146981
H       1.310470    1.683579   -0.353663
H      -0.408352    1.930330   -0.722792
H       0.140163    1.900463    0.968566
H      -1.379575   -0.168731    1.677445
H      -1.604947   -1.455890    0.371784
H       2.113927   -1.869846   -0.227730
H       0.597153   -2.821570   -0.344380
H       2.506036   -2.366834    2.121506
H       2.677019   -1.444761    3.566637
