17

O       0.137989   -0.074579    0.163641
C       0.034307    1.119963    0.102672
N      -1.114127    1.835999    0.055617
C      -1.218182    3.293083    0.041025
C      -0.732273    4.008389   -1.236181
C       0.782967    4.282770   -1.366586
N       1.587548    3.172347   -1.881883
C       1.698170    2.133297   -1.189445
O       1.131787    1.989391    0.070473
H      -1.956852    1.286646    0.108886
H      -2.282390    3.510110    0.170630
H      -0.700428    3.708848    0.912853
H      -1.085397    3.466352   -2.120604
H      -1.229368    4.986313   -1.250207
H       0.914662    5.112057   -2.067101
H       1.174279    4.615653   -0.396051
H       2.265663    1.266631   -1.523102
