14

N      -0.199468    1.377960   -0.046617
C       0.135569    0.056079   -0.021139
O       1.254933   -0.383800    0.047470
O      -1.009659   -0.683969   -0.118378
C      -0.950578   -2.056410   -0.164167
C      -2.090814   -2.821329   -0.295747
N      -1.659679   -4.106662   -0.299357
N      -0.328408   -4.224780   -0.180442
C       0.123372   -2.974339   -0.096085
H       0.524897    2.026602    0.207604
H      -1.157029    1.647308    0.098690
H      -3.128563   -2.546655   -0.383370
H      -2.218097   -4.938621   -0.379702
H       1.173082   -2.769483    0.006556
