15

C      -0.027753    1.392934    0.022033
N       0.248946   -0.026306    0.117061
C       0.557950   -0.623942   -0.939509
O       0.791629   -1.973941   -0.886475
C       1.266144   -2.592224   -1.988638
N       1.821055   -1.977640   -3.028591
N       2.133786   -3.000131   -3.826841
N       1.839030   -4.210523   -3.386092
C       1.274826   -3.982081   -2.200678
H       0.649528    1.938508    0.687996
H       0.074526    1.804371   -0.994316
H      -1.046580    1.587346    0.374587
H       0.658392   -0.193639   -1.940187
H       2.581896   -2.851819   -4.715783
H       0.914457   -4.779158   -1.572941
