22

C      -1.274529   -0.059049   -0.181120
O       0.014988   -0.636084   -0.094988
C       0.649571   -0.530178    1.170449
C       0.256715   -1.680829    2.098655
O      -1.089320   -1.499329    2.515156
C       2.142164   -0.558060    0.892645
C       2.864434    0.681122    0.498170
N       3.157642    0.029860    1.769544
C       2.777543    0.727902    2.989196
H      -1.254680    1.007551    0.093214
H      -1.585663   -0.143132   -1.225981
H      -1.998911   -0.569464    0.461436
H       0.360882    0.414351    1.653538
H       0.386463   -2.623709    1.546415
H       0.939645   -1.696515    2.962869
H      -1.366120   -2.285553    2.994401
H       2.463611   -1.497001    0.441975
H       3.650922    0.654530   -0.251399
H       2.291873    1.608531    0.522500
H       1.883087    1.364129    2.900676
H       2.605811    0.002228    3.791116
H       3.611743    1.369275    3.291608
