14

O       0.028098    1.382005   -0.043665
C       0.005138    0.011875   -0.003356
C      -0.447598   -0.709147    1.235763
O      -1.131339    0.124795    2.142756
C      -2.494357    0.089797    1.728172
O      -2.467662    0.030804    0.313903
C      -1.342660   -0.755410    0.000384
C      -1.556857   -1.930199   -0.788690
N      -1.688250   -2.877543   -1.440177
H      -0.372337    1.698109    0.778117
H       0.793119   -0.446555   -0.592992
H       0.052925   -1.573867    1.657383
H      -2.994625   -0.795525    2.148684
H      -2.988094    1.012116    2.039866
