21

C      -0.042384    1.615958    0.051211
C       0.016745    0.098647   -0.023689
C       1.028390   -0.634277   -1.049709
C       1.049553   -1.788118    0.016704
C       1.711462   -2.449331    1.285935
C       2.885473   -1.556565    1.688461
C       2.138766   -0.202387    1.532322
C       0.773311   -0.751717    1.040840
O       0.582298   -1.841719    2.059225
H       0.943053    2.055698    0.230867
H      -0.427808    2.034172   -0.885178
H      -0.708724    1.941356    0.857332
H      -0.981360   -0.313597   -0.197843
H       0.626117   -0.886800   -2.032907
H       1.956030   -0.073115   -1.172029
H       0.126592   -2.353766   -0.133193
H       1.774731   -3.530426    1.415804
H       3.206446   -1.754734    2.713115
H       3.747703   -1.663547    1.023823
H       2.001570    0.318027    2.482875
H       2.628482    0.482899    0.837877
