19

C      -0.404657    1.596287   -0.156011
C      -0.224554    0.121156    0.039019
C       0.216446   -0.785673   -0.906493
N       0.684481   -0.636701   -2.228739
N       0.215434   -2.034670   -0.336160
C      -0.203257   -1.954017    0.975404
C      -0.308976   -3.175358    1.821054
O       0.881958   -3.967543    1.800426
C      -0.472384   -0.629239    1.230337
H       0.373317    2.186052    0.345674
H      -0.379001    1.862922   -1.218502
H      -1.367742    1.939135    0.238486
H       0.965088    0.319023   -2.408780
H      -0.013945   -0.890370   -2.922081
H       0.624173   -2.852410   -0.756366
H      -0.586176   -2.877112    2.842405
H      -1.091128   -3.854645    1.459054
H       1.605527   -3.389635    2.067330
H      -0.843451   -0.236222    2.166387
