16

C      -0.044503    1.461873   -0.067042
N      -0.129892    0.013087   -0.092615
C       0.487610   -0.637129   -0.982160
O       1.273569   -0.091604   -1.981780
C       1.806330   -1.130969   -2.795497
C       1.266760   -2.414706   -2.197044
C       0.501895   -2.090107   -1.141606
C       1.571978   -3.682910   -2.728197
C       1.860717   -4.745579   -3.217433
H       0.576811    1.896235   -0.857847
H      -1.055362    1.879830   -0.143527
H       0.350798    1.778453    0.905532
H       1.481471   -0.989833   -3.834148
H       2.902794   -1.092360   -2.772607
H      -0.037198   -2.754192   -0.483951
H       2.106006   -5.690011   -3.637075
