16

C       0.026747    1.525123    0.004640
C      -0.018171    0.024002    0.030976
N       0.441009   -0.768274   -1.177101
C      -0.321873   -1.931695   -0.597230
C       0.444390   -2.162567    0.715559
O       1.754902   -1.599219    0.756012
C       0.659225   -0.778870    1.161225
C      -1.332129   -0.823895   -0.141359
O      -2.499855   -0.602657   -0.233070
H       1.049127    1.880583   -0.155092
H      -0.613231    1.926368   -0.787276
H      -0.330800    1.930701    0.956219
H      -0.069584   -0.426327   -1.992265
H      -0.576626   -2.764841   -1.247124
H       0.240967   -3.011089    1.357715
H       0.643784   -0.432751    2.188584
