17

N       0.016987   -1.171919    0.049302
C      -0.027698   -0.013063    0.031441
C      -0.021384    1.409285    0.014410
C      -1.168595    2.117834    0.063978
C      -1.184004    3.583777    0.032555
C      -0.263543    4.368506    0.975858
C       0.133329    4.230080   -0.448883
N       1.221963    3.383601   -0.853083
C       1.323095    2.118914   -0.115823
H      -2.119394    1.594469    0.086453
H      -2.126863    4.051421   -0.226450
H      -0.620993    5.337648    1.304610
H       0.256058    3.805849    1.741808
H       0.037372    5.107667   -1.079408
H       1.103702    3.169931   -1.839336
H       1.757636    2.312352    0.871709
H       2.035285    1.476705   -0.639920
