20

O      -0.031421    0.045464    0.711847
C      -0.009658    1.154124    0.220024
N       1.093297    1.781833   -0.269992
C       2.422036    1.198422   -0.252478
C       3.140993    1.173444   -1.646357
C       4.418066    1.953320   -1.280949
C       4.789921    1.325874    0.095661
C       3.467303    2.014054    0.540965
C       3.849572    3.146033   -0.459366
H      -0.916280    1.783615    0.114264
H       0.975355    2.709484   -0.646319
H       2.291424    0.200299    0.166403
H       3.346749    0.156199   -1.990174
H       2.545170    1.674492   -2.415654
H       5.157470    2.098715   -2.068562
H       4.852756    0.235725    0.166833
H       5.672189    1.785145    0.546721
H       3.234833    2.212219    1.587178
H       4.631983    3.798780   -0.066372
H       3.056204    3.756071   -0.906078
