13

N       0.306659    1.268297    0.004736
C       0.055444    0.028356    0.001314
N      -1.237888   -0.494924    0.011307
C      -2.440690    0.165754    0.027072
O      -2.641555    1.358996    0.035640
C      -3.617263   -0.828907    0.032841
O      -3.450022   -2.022998    0.024757
C      -5.032398   -0.204397    0.049463
O      -6.003539   -0.910460    0.054697
H       1.314490    1.417850   -0.004253
H       0.796030   -0.780205   -0.009703
H      -1.334256   -1.502631    0.006632
H      -5.073583    0.897142    0.055756
