20

C      -0.087712    1.528819    0.018331
C      -0.048804   -0.006752    0.021682
C       0.688269   -0.550084    1.254975
C      -1.441862   -0.576972   -0.062730
C      -2.592971   -0.266739   -1.063656
C      -3.146748   -1.117831    0.098214
C      -1.925217   -2.055376   -0.001065
O      -2.394607   -0.271125    1.050792
H       0.924188    1.940340    0.082752
H      -0.552113    1.916651   -0.893380
H      -0.663844    1.897561    0.872287
H       0.478650   -0.346914   -0.881090
H       1.697969   -0.132639    1.315701
H       0.150123   -0.282786    2.169350
H       0.775451   -1.640337    1.222576
H      -2.931456    0.769763   -1.078469
H      -2.544138   -0.716701   -2.059031
H      -4.180366   -1.353658    0.350808
H      -1.814770   -2.670349   -0.898411
H      -1.677476   -2.589178    0.916982
