23

O      -0.127930    1.509408    0.106177
C       0.026043    0.103796   -0.036980
C      -1.365463   -0.517860   -0.001016
C      -1.382912   -2.052311   -0.021564
C      -2.812128   -2.593385    0.147003
C      -2.831641   -4.123236    0.267495
C      -1.944019   -4.778511   -0.757889
C      -1.033153   -4.112822   -1.466115
C      -0.755552   -2.640276   -1.300488
H       0.741826    1.914392    0.043008
H       0.534095   -0.139714   -0.982649
H       0.639320   -0.313836    0.779466
H      -1.863497   -0.159275    0.908178
H      -1.945746   -0.126477   -0.846942
H      -0.790956   -2.413398    0.833457
H      -3.286474   -2.138857    1.024222
H      -3.409282   -2.291080   -0.724097
H      -2.515339   -4.428164    1.276681
H      -3.858634   -4.495888    0.162231
H      -2.072598   -5.847336   -0.913345
H      -0.437271   -4.639846   -2.208154
H      -1.129395   -2.092473   -2.180384
H       0.329833   -2.478325   -1.300431
