15

C       0.026158    1.416990   -0.063888
O       0.009226   -0.007947   -0.011708
C       0.594469   -0.641086   -1.037259
N       1.167093   -0.000279   -2.059674
N       1.623354   -0.984083   -2.851606
C       1.359377   -2.223613   -2.366268
C       1.777767   -3.418885   -3.088335
O       2.374866   -3.381649   -4.143780
C       0.680992   -2.042157   -1.169190
H       1.052904    1.796860   -0.079229
H      -0.494609    1.783188   -0.954643
H      -0.486854    1.753471    0.837732
H       2.106838   -0.776274   -3.709919
H       1.510066   -4.377876   -2.599797
H       0.307789   -2.796835   -0.497729
