18

O       0.374828    0.282794    1.003182
C       0.175703    1.187931    0.221663
N       1.089352    1.677413   -0.659452
C       2.452240    1.177439   -0.739312
C       3.430066    1.985083    0.123051
N       4.772330    1.438145   -0.003938
C       5.613488    2.008101   -1.052941
C       5.870936    2.314091    0.381123
H      -0.797265    1.712998    0.137157
H       0.821548    2.463674   -1.229227
H       2.443995    0.140328   -0.398967
H       2.775245    1.189952   -1.785796
H       3.382090    3.054327   -0.160065
H       3.121028    1.909635    1.171140
H       6.242852    1.306038   -1.591911
H       5.198264    2.810310   -1.662610
H       5.626608    3.318277    0.724805
H       6.691599    1.838805    0.910551
