14

O      -0.006152    0.002307   -0.168892
C      -0.032222    1.189527   -0.018900
C      -1.250675    2.090445    0.187040
C      -0.620113    3.448007    0.506017
O       0.644847    3.439419   -0.169424
C       1.201389    2.142354   -0.023832
C       1.968414    1.980936    1.211496
C       2.565651    1.852318    2.246567
H      -1.814229    2.118005   -0.752038
H      -1.904730    1.686170    0.962322
H      -1.180684    4.302781    0.124756
H      -0.473649    3.573843    1.587816
H       1.827853    1.936664   -0.897492
H       3.110532    1.736834    3.151153
