17

C       0.064819    1.472872    0.043543
C       0.009635   -0.017548   -0.024934
C      -0.084468   -0.817199   -1.088468
C      -0.037147   -2.251084   -0.696624
C       1.218334   -2.697522   -0.029219
N       0.057891   -2.303601    0.785150
C       0.065903   -0.889126    1.237512
C       1.226718   -0.586503    2.085066
N       2.143361   -0.321151    2.736896
H       0.999449    1.811306    0.506012
H      -0.007650    1.918016   -0.951479
H      -0.751891    1.871121    0.658940
H      -0.173786   -0.485035   -2.115736
H      -0.698091   -2.970303   -1.172318
H       1.457329   -3.754641    0.041090
H       2.074253   -2.029590   -0.078871
H      -0.830325   -0.724870    1.853621
