16

O      -0.035258    1.428853    0.057130
C       0.033188    0.014645    0.007511
C       0.729701   -0.548146    1.246384
O       0.686223   -1.979061    1.254923
C      -0.500769   -2.524747    0.856511
N      -1.487603   -1.945796    0.306023
C      -1.393236   -0.528520   -0.016197
C      -0.534915   -3.932343    1.133411
C      -0.553720   -5.111005    1.365061
H       0.835873    1.786807   -0.141338
H       0.569929   -0.330260   -0.888877
H       1.789215   -0.280077    1.282643
H       0.238383   -0.157364    2.146706
H      -1.998040    0.045498    0.698557
H      -1.848341   -0.369646   -0.999207
H      -0.582060   -6.153505    1.566987
