17

O       0.133248    1.408763    0.061755
C       0.014763    0.006701   -0.006092
C      -1.369047   -0.645848    0.024159
C      -2.219073   -0.219062   -1.157924
C      -2.254029    1.112000   -1.711476
C      -2.361837    2.233500   -2.137648
C      -1.137497   -1.251820   -1.370074
C       0.270924   -0.644181   -1.418023
O       0.606309    0.232158   -2.453663
H      -0.667075    1.802490   -0.311124
H       0.683904   -0.401785    0.754259
H      -1.835736   -1.089093    0.895709
H      -3.206876   -0.674206   -1.122223
H      -2.439445    3.210564   -2.547217
H      -1.402391   -2.241415   -1.722381
H       1.022279   -1.440512   -1.351456
H       0.648905    1.111241   -2.051855
