21

C      -0.062118    1.546492    0.192346
C      -0.004145    0.037461    0.014036
C       1.092056   -0.600270   -0.926491
C       1.264691   -1.774690    0.109189
C       2.526791   -2.238803    0.814591
C       3.544344   -1.240877    1.302192
C       2.441150   -1.679481    2.247375
C       1.267692   -0.743738    2.255215
C       0.618875   -0.827876    1.091048
H       0.918274    1.941535    0.478562
H      -0.372759    2.042395   -0.733694
H      -0.776893    1.825227    0.974172
H      -0.987570   -0.348274   -0.284115
H       0.776890   -0.873443   -1.936513
H       1.981387    0.033519   -0.976850
H       0.632603   -2.621835   -0.182030
H       2.870931   -3.254137    0.657137
H       4.542697   -1.626143    1.483930
H       3.518809   -0.220969    0.931741
H       2.705239   -2.273718    3.116179
H       1.119448   -0.000560    3.030887
