16

N       0.254725    1.332726    0.572152
C       0.011366    0.042880    0.130510
C      -1.094892   -0.675335   -0.214914
N      -0.694809   -1.993455   -0.457576
C       0.577484   -1.997160   -0.270332
O       1.092461   -0.789614    0.096372
C      -2.505095   -0.265057   -0.319530
C      -3.410017   -0.940820   -1.288889
N      -3.567330   -1.177577    0.153931
H       1.090328    1.741392    0.170866
H      -0.538115    1.944589    0.436644
H       1.278599   -2.809708   -0.369101
H      -2.697180    0.779094   -0.080281
H      -4.218315   -0.383441   -1.754803
H      -2.973513   -1.728240   -1.896124
H      -3.129537   -2.068029    0.385824
