18

C      -0.132185    1.595788    0.039409
C       0.077782    0.087046    0.031097
C       1.157855   -0.546158   -0.914592
C       1.786189   -1.282906    0.278241
C       2.212246   -0.257422    1.321376
C       0.764914   -0.570737    1.234204
O       0.127960   -1.031066    2.356195
C       2.252690   -2.623904    0.280055
N       2.602073   -3.728913    0.275939
H       0.810317    2.131260    0.192003
H      -0.558204    1.936133   -0.910020
H      -0.818519    1.890341    0.839954
H      -0.879539   -0.418164   -0.145807
H       0.736571   -1.213534   -1.667150
H       1.825766    0.168818   -1.405194
H       2.693024   -0.681644    2.196142
H       2.623573    0.692682    0.988402
H      -0.625824   -1.569923    2.088344
