18

C      -0.070090    1.408280   -0.038685
N       0.018300   -0.047165    0.009454
C       1.375851   -0.582482   -0.191509
C       0.762424   -0.574845    1.166056
C       0.635631   -2.091294    1.379157
O       1.957602   -2.562895    0.899897
C       1.445578   -2.101377   -0.413321
C       0.057384   -2.642241    0.041712
O      -0.054012   -4.034500   -0.000793
H       0.820914    1.921405    0.361110
H      -0.210289    1.722965   -1.077211
H      -0.940880    1.732066    0.539333
H       2.180967    0.081184   -0.487155
H       1.075449    0.094946    1.959445
H       0.360653   -2.483699    2.357486
H       1.996394   -2.504063   -1.262537
H      -0.848857   -2.208175   -0.370224
H       0.769599   -4.376608    0.373290
