19

C       0.703533    1.618115   -0.568123
O       0.596920    0.348041   -1.172516
C       0.609856   -0.705702   -0.242565
C       0.528450   -2.062183   -0.941683
O       0.278381   -3.054947   -0.298422
C       0.785813   -2.078585   -2.421302
O       1.079164   -3.344732   -3.007708
C      -0.157813   -2.747508   -3.360653
C      -1.419556   -3.451546   -2.939371
H      -0.133308    1.809921    0.120470
H       1.644159    1.720805   -0.005477
H       0.683896    2.361637   -1.367819
H       1.534918   -0.698817    0.361434
H      -0.231695   -0.640938    0.464818
H       1.364175   -1.240527   -2.800983
H      -0.171836   -2.327030   -4.368932
H      -1.340704   -3.812465   -1.913356
H      -2.278170   -2.777172   -3.026139
H      -1.598917   -4.307547   -3.598380
