15

O      -0.158041    0.068097   -0.015659
C      -0.011012    1.242073    0.058940
O      -1.008061    2.207501    0.224527
C      -0.023540    3.261064    0.001334
C       0.975831    3.272147    1.091504
C       1.112933    2.254006   -0.055852
C       1.892188    2.608067   -1.273611
C       1.311404    3.632580   -1.915534
C       0.015817    4.107004   -1.254870
H       1.723392    4.058138    1.080111
H       0.677233    2.923189    2.073882
H       2.802371    2.109837   -1.583490
H       1.705230    4.107450   -2.808736
H      -0.859023    3.903410   -1.883793
H       0.016408    5.183103   -1.050497
