22

C      -0.359530    1.462442    0.338070
C       0.015141    0.048960   -0.031343
C      -0.579475   -1.116680    0.677398
N       0.819160   -0.732156    0.941021
C       1.792853   -1.521812    0.167036
C       1.346332   -1.501928   -1.298414
C       2.212364   -2.042995   -2.399181
C       0.947631   -2.771530   -2.013245
C       0.532530   -0.219093   -1.442705
H       0.469980    2.151743    0.142929
H      -1.222534    1.803042   -0.245697
H      -0.614747    1.531328    1.398563
H      -1.254418   -0.947296    1.512209
H      -0.773635   -2.027493    0.116863
H       2.769958   -1.035598    0.280809
H       1.877421   -2.535345    0.574475
H       2.229090   -1.512913   -3.346170
H       3.163675   -2.490026   -2.126907
H       1.043718   -3.712859   -1.480452
H       0.106884   -2.733060   -2.699138
H      -0.270618   -0.305457   -2.182151
H       1.171792    0.618264   -1.753365
