13

O      -0.000522   -0.095985    0.002497
C      -0.014584    1.128754    0.009248
C      -1.306454    1.837845    0.030497
C      -1.560028    3.165465    0.040477
C      -0.640145    4.276328    0.033402
N       0.652288    4.320682    0.016646
C       1.478992    3.224663    0.000803
C       1.239529    1.887986   -0.002821
H      -2.149831    1.151545    0.038511
H      -2.605885    3.464781    0.056066
H      -1.124584    5.255329    0.044262
H       2.528258    3.515932   -0.011112
H       2.111467    1.238681   -0.017225
