17

C      -0.074099    1.487999    0.105973
N       0.018250    0.037716    0.128915
C      -1.038612   -0.639169    0.001891
O      -2.298368   -0.097363   -0.131629
C      -3.254386   -1.117243   -0.464583
C      -2.649704   -2.433001    0.042380
C      -1.173824   -2.119363   -0.004084
N      -0.306782   -3.054892   -0.059817
O       1.002918   -2.616388   -0.099190
H       0.867495    1.895683   -0.272319
H      -0.905594    1.867345   -0.499810
H      -0.205617    1.867844    1.127813
H      -4.201094   -0.852354    0.010099
H      -3.396154   -1.130717   -1.552314
H      -2.962909   -2.625634    1.075244
H      -2.919580   -3.299923   -0.561910
H       1.491134   -3.446120   -0.155622
