16

O       0.027021    1.307391    0.257973
C       0.052980   -0.014091   -0.013399
C       0.054754   -0.755433   -1.177521
C       0.087383   -2.099855   -0.727279
N       0.097705   -2.179675    0.599992
N       0.083500   -0.885105    1.016444
C       0.111820   -3.328729   -1.551113
C       1.093317   -4.409279   -1.238966
N      -0.333290   -4.601673   -0.960149
H       0.000922    1.793455   -0.571971
H       0.038911   -0.389328   -2.191160
H       0.063913   -0.666275    1.997664
H      -0.188692   -3.186113   -2.585959
H       1.494752   -5.024019   -2.040643
H       1.766753   -4.228456   -0.406059
H      -0.503150   -4.433863    0.030538
