19

C      -0.189414    1.360801   -0.222305
O      -0.098044   -0.039257   -0.093342
C       0.713340   -0.640584   -1.084930
C       0.700961   -2.149975   -0.852402
C       1.389259   -2.545733    0.460951
N      -0.681118   -2.613469   -0.899046
C      -1.056211   -3.777226   -1.484756
O      -0.308050   -4.550883   -2.047732
H       0.796196    1.841455   -0.126481
H      -0.621574    1.653096   -1.191900
H      -0.838264    1.722243    0.578955
H       0.321517   -0.408404   -2.088225
H       1.744731   -0.257106   -1.026794
H       1.213835   -2.635372   -1.687510
H       0.900668   -2.065595    1.312948
H       1.348660   -3.629589    0.592518
H       2.440701   -2.239832    0.451228
H      -1.367863   -2.043155   -0.430159
H      -2.148256   -3.948353   -1.399163
