21

C       0.071858    1.361208   -0.074272
O      -0.003806   -0.040352    0.064695
C      -1.319266   -0.567834    0.053341
C      -1.841553   -0.746579   -1.378432
O      -3.187419   -1.193608   -1.386171
C      -3.452922   -2.326288   -0.605993
C      -2.662304   -3.599848   -0.715321
C      -2.550713   -2.730444    0.531990
C      -1.279206   -1.917440    0.773777
H       1.127203    1.634136    0.004092
H      -0.306134    1.715461   -1.044258
H      -0.487737    1.877355    0.721040
H      -2.007877    0.112613    0.580047
H      -1.846908    0.202788   -1.920019
H      -1.178252   -1.436527   -1.923497
H      -4.525988   -2.408693   -0.470404
H      -3.197822   -4.541041   -0.653593
H      -1.801943   -3.621631   -1.376057
H      -3.039535   -3.104502    1.425637
H      -0.391810   -2.455919    0.421375
H      -1.134584   -1.747607    1.844396
