17

O       0.027067    0.098317    0.114087
C      -0.030822    1.294480    0.058259
C      -1.250062    2.224030    0.177242
C      -0.498225    3.540159   -0.034670
C       0.773848    3.352436    0.938584
C       1.114278    2.293799   -0.188214
O       2.109580    1.791792   -1.108096
C       1.189509    2.240668   -2.192056
C       0.569053    3.265773   -1.179755
H      -1.991743    1.996200   -0.594635
H      -1.735107    2.148773    1.154933
H      -1.065617    4.468781   -0.012273
H       1.439710    4.214561    0.928772
H       0.581493    3.012825    1.960517
H       1.744773    2.662152   -3.032033
H       0.555247    1.409648   -2.514565
H       1.223509    4.139810   -1.213810
