19

C      -0.014349    1.547379    0.193019
C       0.040954    0.029855    0.036257
O       0.740307   -0.595820    1.106478
C      -1.338088   -0.580913   -0.113233
C      -2.209188   -1.024001    1.052682
C      -1.689337   -2.020098    0.026926
O      -2.513626   -2.355317   -1.062703
C      -2.945050   -1.132743   -1.627776
O      -2.008038   -0.129304   -1.271473
H       0.996107    1.958757    0.267923
H      -0.521916    2.002322   -0.661243
H      -0.572997    1.820482    1.097249
H       0.606029   -0.218825   -0.870410
H       0.501433   -0.138183    1.919450
H      -1.735460   -1.072782    2.026988
H      -3.260810   -0.760623    1.068241
H      -0.995932   -2.805725    0.294621
H      -2.981066   -1.227100   -2.718105
H      -3.943390   -0.866096   -1.244192
