17

O       0.040968    0.070852   -0.443472
C      -0.017657    1.208477   -0.058583
C      -1.285201    1.987881    0.314290
C      -0.804345    3.284819    0.942785
C       0.070190    3.173306    2.161722
C       0.711651    3.373553    0.806953
C       1.184280    2.136941    0.114019
C       2.549274    1.595900    0.100864
O       2.021229    2.264283   -1.043977
H      -1.839764    2.177029   -0.613363
H      -1.932487    1.380806    0.954754
H      -1.412170    4.173469    0.824147
H       0.093218    4.014419    2.845367
H       0.170267    2.206239    2.647960
H       1.215727    4.305250    0.582453
H       3.330379    2.131442    0.638645
H       2.684211    0.521940   -0.013064
