17

C      -0.126083    1.478735   -0.018876
C      -0.035279    0.027543   -0.015798
C       0.043128   -1.177358   -0.013057
C       0.133669   -2.583919   -0.009587
C       1.234399   -3.437895   -0.009592
C       2.678796   -3.048877   -0.011871
C       0.664162   -4.728666   -0.005802
N      -0.667460   -4.699545   -0.003624
N      -0.968545   -3.394785   -0.005758
H       0.871112    1.931997   -0.020895
H      -0.658350    1.844568   -0.904196
H      -0.656453    1.848360    0.866008
H       3.197558   -3.412327    0.882453
H       3.206667   -3.459495   -0.879837
H       2.785141   -1.961333   -0.039808
H       1.176329   -5.680439   -0.004930
H      -1.931281   -3.102692   -0.005541
