19

C       0.127521    1.255497   -0.620708
N      -0.033222   -0.047264    0.026935
C       0.584430   -0.079251    1.351134
C      -1.405619   -0.453753    0.024188
C      -1.849771   -1.181470   -1.210256
O      -0.946180   -1.397111   -2.229770
C      -1.726245   -1.955279    0.112135
C      -0.676292   -2.917032    0.257781
N       0.165794   -3.702647    0.374665
H       1.192219    1.495200   -0.693035
H      -0.289721    1.218822   -1.629965
H      -0.369922    2.069892   -0.064709
H       0.121746    0.640273    2.049010
H       0.506919   -1.081983    1.774886
H       1.645364    0.169897    1.258953
H      -2.126000    0.194658    0.533912
H      -2.854988   -1.034368   -1.588939
H      -0.065166   -1.262211   -1.846864
H      -2.648293   -2.215978    0.620946
