20

C      -0.044569    1.594920    0.006919
C      -0.190683    0.069945   -0.074723
C       0.625950   -0.519795   -1.214869
C       2.174937   -0.747992   -1.126357
C       1.908563   -1.975993   -0.206638
C       0.855975   -2.069562   -1.357874
C       2.022446   -1.717694   -2.334101
C      -0.157294   -3.079217   -1.536324
N      -0.980294   -3.880061   -1.676315
H       0.991945    1.885705    0.208558
H      -0.346233    2.073403   -0.931182
H      -0.667761    2.006776    0.805999
H       0.082026   -0.373237    0.887927
H      -1.244589   -0.187719   -0.239652
H       0.317201   -0.060458   -2.161600
H       2.944877    0.011123   -0.996362
H       2.672620   -2.756571   -0.204620
H       1.530570   -1.794891    0.798772
H       1.732391   -1.279111   -3.291587
H       2.792006   -2.483555   -2.451081
