17

N      -0.025529    1.361395    0.049162
C       0.035308   -0.026561    0.046296
O       1.073074   -0.640947    0.204919
N      -1.182435   -0.664847   -0.113760
C      -2.476655   -0.135981    0.019314
C      -3.399108   -1.100095    0.150377
C      -2.748794   -2.436105    0.072572
C      -2.024131   -2.757667   -1.227459
C      -1.267019   -2.109261   -0.104100
H       0.895831    1.768856   -0.012365
H      -0.703243    1.804180   -0.552565
H      -2.624963    0.933299    0.011107
H      -4.456603   -0.933686    0.292838
H      -3.097614   -3.252678    0.694957
H      -1.790773   -3.799761   -1.415217
H      -2.266736   -2.172302   -2.107527
H      -0.446506   -2.609779    0.389456
