21

C       0.334351    1.434921   -0.243030
C      -0.065069   -0.019737    0.043631
C       0.667658   -0.548111    1.283471
C      -1.587906   -0.191090    0.213107
C      -2.377251    0.123185   -1.036041
N      -2.374885   -0.892839   -2.091278
C      -3.644222   -0.595528   -1.395435
C      -4.189906   -1.642272   -0.564607
N      -4.649288   -2.458695    0.113067
H       1.419516    1.525099   -0.355737
H      -0.120549    1.818290   -1.162027
H       0.031854    2.094166    0.579846
H       0.233267   -0.634401   -0.816252
H       0.392144    0.024865    2.177134
H       0.424506   -1.598430    1.473300
H       1.753022   -0.470351    1.162285
H      -1.802052   -1.223478    0.508284
H      -1.944518    0.452418    1.029134
H      -2.363390    1.164392   -1.354187
H      -2.393766   -0.472822   -3.016769
H      -4.403361   -0.025590   -1.924546
