15

C       0.190401    1.251203    0.558969
C       0.077510   -0.098413   -0.103636
O       0.961792   -0.618412   -0.731846
C      -1.304652   -0.821847   -0.012703
O      -1.152310   -2.207961   -0.291534
C      -0.949294   -2.556004   -1.588005
O      -0.725860   -3.679715   -1.911428
C      -1.963708   -0.667065    1.274348
C      -2.493604   -0.518388    2.341293
H       1.114392    1.736291    0.243733
H      -0.672738    1.880508    0.317419
H       0.189558    1.123275    1.646268
H      -1.926324   -0.346828   -0.791919
H      -1.051536   -1.705331   -2.286052
H      -2.969287   -0.398368    3.283944
