21

C      -0.103716    1.671954   -0.614199
C       0.120253    0.202423   -0.261858
N       0.779139   -0.562830   -1.330089
C       2.187635   -0.208127   -1.487723
C       0.580482   -2.003423   -1.190255
C      -0.793845   -2.386115   -1.800905
O      -0.944252   -1.788093   -3.064870
C      -0.894292   -3.848215   -1.925953
N      -0.959701   -5.000030   -1.981423
H       0.835702    2.218615   -0.733445
H      -0.672716    1.763026   -1.544143
H      -0.667945    2.163002    0.184190
H       0.695022    0.121386    0.679019
H      -0.852210   -0.261899   -0.070149
H       2.784680   -0.422268   -0.583984
H       2.616428   -0.765577   -2.324359
H       2.284371    0.856167   -1.713081
H       1.353993   -2.517781   -1.766002
H       0.646912   -2.356826   -0.149013
H      -1.600599   -2.070682   -1.118239
H      -0.437585   -0.960822   -2.978709
