20

C       0.107561    1.538140    0.501396
C       0.035113    0.126276   -0.091163
C       0.907814   -0.860727    0.688304
C      -1.422783   -0.361101   -0.119306
O      -1.904659   -0.402657    1.213604
O       0.352766    0.146782   -1.503953
C       1.665680    0.456889   -1.885571
C       2.540189   -0.729505   -1.997512
N       3.225640   -1.653238   -2.105664
H       1.138040    1.890034    0.610271
H      -0.438362    2.243299   -0.132438
H      -0.350660    1.537606    1.492795
H       0.508994   -0.965416    1.699787
H       0.902822   -1.843731    0.209744
H       1.944422   -0.520525    0.764795
H      -2.009058    0.328968   -0.743453
H      -1.447590   -1.351922   -0.594431
H      -2.804748   -0.738733    1.198904
H       1.610583    0.920594   -2.876966
H       2.148237    1.181321   -1.217661
