20

C      -0.031646    1.560122    0.275884
C      -0.028027    0.054309   -0.000305
C      -1.430915   -0.559585    0.015859
C      -1.419568   -2.075932   -0.263099
C      -2.746764   -2.679656   -0.247216
C      -3.853247   -3.153486   -0.220985
C      -5.189629   -3.733081   -0.216618
O      -5.520115   -4.173219    1.096826
H       0.982286    1.971707    0.258630
H      -0.622695    2.098374   -0.473355
H      -0.464489    1.781016    1.257792
H       0.441883   -0.139335   -0.973976
H       0.598819   -0.454060    0.744541
H      -1.906131   -0.380863    0.987810
H      -2.063647   -0.064643   -0.730888
H      -0.944841   -2.263895   -1.235862
H      -0.785096   -2.577864    0.479956
H      -5.911311   -2.980302   -0.574777
H      -5.223042   -4.569426   -0.934380
H      -6.405596   -4.548873    1.057063
