19

C       0.055682    1.378008    0.158926
O      -0.121325    0.000324   -0.087336
C       0.606554   -0.505234   -1.189696
C       2.102127   -0.688509   -0.880023
C       2.799077   -1.476242   -1.954746
C       2.162933   -2.297433   -2.799745
C       0.703356   -2.527523   -2.726065
O       0.125505   -3.243779   -3.518120
C      -0.024078   -1.842515   -1.573987
H       1.075950    1.622900    0.488160
H      -0.174084    1.981237   -0.733000
H      -0.638517    1.651728    0.956977
H       0.513971    0.191115   -2.041124
H       2.599343    0.279279   -0.752954
H       2.196797   -1.208197    0.084983
H       3.877270   -1.356081   -2.033137
H       2.688777   -2.844326   -3.575859
H       0.020192   -2.510455   -0.702119
H      -1.077051   -1.723454   -1.837157
