23

C      -0.121391    1.589081   -0.082312
C       0.022806    0.062340   -0.017065
C       0.733192   -0.472592   -1.263436
O      -0.041754   -0.127871   -2.404754
C       0.748037   -0.438732    1.250372
O       2.101984    0.021213    1.307577
C      -0.002871   -0.127320    2.548962
C       0.629739   -0.788917    3.767227
O      -0.112859   -0.390275    4.911046
H       0.856890    2.083822   -0.035259
H      -0.581289    1.874334   -1.030272
H      -0.740699    1.978622    0.730347
H      -0.983026   -0.379151   -0.009035
H       1.744681   -0.045021   -1.317463
H       0.843372   -1.566165   -1.181018
H       0.463257   -0.357118   -3.189727
H       0.847480   -1.529540    1.164532
H       2.079835    0.971048    1.467609
H      -0.031458    0.956152    2.720659
H      -1.044732   -0.457745    2.463238
H       0.613213   -1.884523    3.643076
H       1.683466   -0.485334    3.841419
H       0.307133   -0.771201    5.687540
