21

C      -0.042950    1.494385    0.050555
C       0.048999   -0.017903    0.006220
C       1.423374   -0.631286   -0.170649
C       0.704781   -0.734957    1.169027
O       1.166354    0.068084    2.225047
C       0.132944   -2.045155    1.577173
C      -0.706214   -2.743509    0.811731
C      -1.155985   -2.238049   -0.534744
C      -1.173546   -0.698773   -0.596153
H       0.803577    1.928107    0.585050
H      -0.066158    1.908776   -0.964139
H      -0.957945    1.814290    0.562055
H       1.548142   -1.536163   -0.755762
H       2.260405    0.058721   -0.216630
H       2.028891   -0.265651    2.493726
H       0.444398   -2.413978    2.551230
H      -1.075088   -3.708647    1.146780
H      -0.501004   -2.637893   -1.321892
H      -2.155580   -2.620432   -0.769785
H      -2.053723   -0.338297   -0.047440
H      -1.301854   -0.372757   -1.635526
