19

N       0.569486    0.225996    0.801488
C      -0.194855    0.408574   -0.309052
O       0.055011    1.223814   -1.176808
C      -1.443933   -0.476400   -0.348581
C      -2.020306   -0.694761   -1.763090
C      -2.721177   -2.064945   -1.652375
C      -1.956382   -2.783224   -0.549173
C      -0.473951   -2.736764   -0.599268
N      -1.215130   -1.803469    0.273555
H       1.430489    0.740412    0.885441
H       0.375324   -0.543294    1.421313
H      -2.196829    0.017962    0.280173
H      -2.701012    0.107005   -2.052438
H      -1.218177   -0.701422   -2.504197
H      -3.766466   -1.945894   -1.346225
H      -2.720354   -2.619009   -2.595929
H      -2.450031   -3.587467   -0.011099
H       0.107382   -3.479928   -0.062100
H       0.008066   -2.350068   -1.493426
