19

C      -0.145104    1.524556   -0.055273
C      -0.013428    0.040079    0.034250
C       0.007176   -1.047554   -1.038165
C       1.141695   -1.863091   -0.382202
C       0.477017   -3.031453    0.391875
C      -0.271639   -1.907967    1.152000
C       0.917788   -0.910739    0.855722
C      -1.031389   -1.066008    0.097239
O      -2.389971   -0.944176   -0.100441
H       0.773463    1.990701   -0.430163
H      -0.960733    1.795273   -0.733898
H      -0.369610    1.965931    0.922916
H      -0.289265   -0.972067   -2.077549
H       2.090791   -1.971585   -0.906973
H      -0.109885   -3.766876   -0.169995
H       1.195587   -3.548958    1.035473
H      -0.721288   -2.041489    2.135310
H       1.677938   -0.629928    1.581213
H      -2.695244   -1.697127   -0.619310
