18

C       0.034812   -1.171284    0.018899
C       0.011511    0.030401   -0.005100
C      -0.001094    1.474743   -0.002584
C      -0.969347    2.171732    1.007429
C      -1.452324    2.996793   -0.172744
C      -0.327777    3.511195   -0.992375
C       1.067734    3.606270   -0.388245
C       1.383133    2.140373   -0.008562
N      -0.766492    2.107420   -1.189451
H       0.049226   -2.232973    0.030061
H      -1.735607    1.481560    1.362178
H      -0.519349    2.686417    1.862880
H      -2.473539    3.333411   -0.322637
H      -0.587692    4.163534   -1.820217
H       1.784425    3.998391   -1.114202
H       1.088401    4.273492    0.479443
H       1.883571    2.036299    0.957886
H       2.009193    1.663382   -0.767750
