18

O      -0.017331    1.293537   -0.236460
C       0.045766   -0.109723   -0.046261
C       0.105725   -0.432770    1.479071
O      -1.366079   -0.524797    1.492171
C      -1.305353   -0.795957    0.072368
C      -1.931044   -0.473710   -1.305614
N      -0.821844   -1.423076   -1.796804
C      -1.065310   -2.195622   -0.518747
C       0.475166   -0.742066   -1.390906
H      -0.592843    1.657658    0.448470
H       0.565426   -1.383850    1.765365
H       0.465028    0.375575    2.120653
H      -2.897040   -0.928991   -1.525115
H      -1.866939    0.552220   -1.666881
H      -0.223660   -2.802423   -0.175267
H      -1.968811   -2.803620   -0.597294
H       0.749560    0.034084   -2.105501
H       1.262782   -1.495731   -1.348907
