20

C      -0.252915    1.511877   -0.203914
C       0.176981    0.068302    0.082555
C       0.824153   -0.584650   -1.123107
C       0.912817   -2.078931   -1.330714
C       0.350215   -3.088895   -0.354796
C      -0.037673   -1.239493   -2.189802
O      -1.408971   -1.273382   -1.919731
C       0.292111   -1.038811   -3.583436
N       0.549332   -0.903406   -4.703634
H       0.596785    2.123124   -0.526931
H      -1.007875    1.541340   -0.995119
H      -0.679184    1.977962    0.689418
H       0.896887    0.050390    0.910559
H      -0.689965   -0.511842    0.406161
H       1.664105   -0.022803   -1.523884
H       1.806416   -2.411202   -1.851758
H      -0.640475   -2.802090    0.002118
H       0.266187   -4.073412   -0.826838
H       1.007439   -3.194664    0.514330
H      -1.782245   -2.061314   -2.331837
