19

O      -0.174673    1.446907    0.037514
C      -0.019768    0.050670    0.023553
C       0.361247   -0.623879    1.390358
C      -1.076032   -1.135679    1.503076
C      -1.755631   -2.319658    2.199133
C      -3.051155   -1.452149    2.357158
C      -2.278615   -0.207368    1.838306
O      -2.525586    0.115045    0.451971
C      -1.405701   -0.685324    0.055863
H       0.699610    1.838126    0.133011
H       0.612594   -0.279872   -0.812613
H       1.098560   -1.424124    1.266864
H       0.704361    0.054774    2.177550
H      -1.838012   -3.247455    1.625657
H      -1.297390   -2.555503    3.164665
H      -3.874271   -1.727661    1.694870
H      -3.428049   -1.371523    3.379408
H      -2.232910    0.679576    2.475344
H      -1.625391   -1.344029   -0.789610
