19

O       0.243686    1.325000   -0.379643
C       0.045841   -0.032039   -0.001794
C       0.608385   -0.394499    1.400981
C      -0.590839   -0.525364    2.333020
C      -1.571607    0.615165    2.386120
C      -1.850756   -0.569824    1.488962
C      -1.434853   -0.450908    0.052815
C      -2.345221   -0.218590   -1.070547
O      -1.826221   -1.528796   -0.810039
H      -0.150371    1.894923    0.287687
H       0.537622   -0.607739   -0.788800
H       1.131534   -1.355200    1.349462
H       1.337948    0.355812    1.722438
H      -0.491783   -1.150403    3.213096
H      -2.185176    0.705540    3.275970
H      -1.315643    1.576795    1.949561
H      -2.686188   -1.221716    1.714481
H      -3.411307   -0.094250   -0.883353
H      -1.969421    0.266161   -1.970054
