12

N       0.029454    1.320585    0.066761
C      -0.061658   -0.019654    0.019454
N      -1.219723   -0.605291    0.003671
O      -1.135915   -2.031544   -0.013955
C       0.049876   -2.632857   -0.014104
O      -0.072749   -3.954360   -0.016834
N       1.223045   -2.102992   -0.014663
C       1.270773   -0.732815   -0.008383
O       2.290094   -0.073962   -0.028417
H       0.959196    1.699541   -0.025764
H      -0.785110    1.903093   -0.016291
H      -1.014119   -4.178512   -0.015512
