17

C      -0.269357    1.301193   -0.137983
O      -0.083902   -0.103410   -0.066190
C       0.654248   -0.676169   -1.032807
C       0.967099   -2.017345   -1.169233
C       0.521474   -3.139821   -0.298528
O      -0.650472   -3.739686   -0.856554
C       1.759603   -2.048680   -2.340714
N       1.937195   -0.853595   -2.885378
N       1.243755   -0.016749   -2.061729
H       0.687352    1.835989   -0.068611
H      -0.784604    1.588992   -1.063765
H      -0.891491    1.572857    0.715060
H       1.330623   -3.881772   -0.213597
H       0.319580   -2.757818    0.713289
H      -0.909916   -4.462141   -0.275031
H       2.209219   -2.916581   -2.802838
H       1.235242    0.966745   -2.264193
