17

C      -0.151998    1.461982    0.017008
C      -0.016141   -0.027885    0.097835
C      -0.017996   -0.955148   -1.149167
O       0.698214   -2.151010   -0.814330
C       0.036971   -2.103911    0.484099
C       0.713388   -0.876458    1.149996
O       2.108799   -0.870395    1.211123
C      -1.063099   -1.111600   -0.089386
O      -2.423305   -1.014208   -0.014552
H       0.825439    1.933687   -0.128668
H      -0.798358    1.759232   -0.815569
H      -0.589441    1.869887    0.934556
H      -0.025142   -0.606255   -2.173291
H      -0.060591   -3.077164    0.960396
H       0.320208   -0.686871    2.152562
H       2.401039   -1.259957    0.375312
H      -2.813875   -1.707208   -0.560383
