16

C      -0.023454    1.365267   -0.546351
C      -0.124002    0.003323    0.085361
O       1.064909   -0.767598    0.198416
C       0.447286   -0.357986    1.410425
C       1.193594    0.645892    2.230621
O       2.052038    1.393013    1.851404
O       0.722370    0.589931    3.519450
C       1.266461    1.450213    4.444154
N       0.813141    1.411726    5.615565
H       0.852545    1.903622   -0.183726
H       0.054616    1.258574   -1.633135
H      -0.925056    1.948555   -0.331721
H      -0.998193   -0.583798   -0.203929
H      -0.033845   -1.141171    1.992079
H       2.053437    2.078321    4.026905
H       1.301565    2.091198    6.197295
