16

C      -0.062300    1.425708    0.033417
N      -0.048361   -0.024214    0.030726
C       0.575521   -0.602907   -0.925849
N       1.269867   -0.006944   -1.952376
C       0.602734   -2.080544   -0.933114
N       1.158244   -2.737844   -1.927114
O       1.005302   -4.079977   -1.628259
C       0.356990   -4.188079   -0.453131
C       0.068927   -2.963818    0.047568
H       0.952439    1.854176    0.042712
H      -0.584478    1.842447   -0.844474
H      -0.586923    1.783982    0.922263
H       1.056681    0.949537   -2.179298
H       1.542906   -0.598543   -2.721984
H       0.177762   -5.195786   -0.112298
H      -0.437346   -2.693348    0.956789
