18

O       0.529006    0.547849   -0.982697
C       0.044559   -0.309570    0.011889
C       0.410719    0.115037    1.453910
N      -0.650374   -0.486996    2.257808
C      -1.798220   -0.926936    1.452919
C      -1.501094   -0.369031    0.062041
O      -2.024524    0.944381   -0.150415
C      -0.587464   -0.742407    3.588614
O      -1.468594   -1.287544    4.222353
H      -0.142204    1.240481   -1.071940
H       0.442145   -1.311785   -0.184449
H       1.398528   -0.238004    1.759989
H       0.411871    1.212744    1.517278
H      -1.865916   -2.021202    1.445683
H      -2.740572   -0.549940    1.862345
H      -1.917660   -0.984231   -0.737801
H      -2.024226    1.419061    0.688087
H       0.362897   -0.394941    4.040576
