16

C      -0.029386    1.430779    0.330844
C       0.025470   -0.017005   -0.101456
O       1.037431   -0.555377   -0.488292
C      -1.269545   -0.799340   -0.018982
O      -2.435452   -0.073873    0.228971
C      -1.354318   -2.090822   -0.787834
C      -1.235208   -2.144439    0.719037
C      -0.052731   -2.638127    1.366604
N       0.867207   -3.062128    1.924050
H       0.976448    1.849946    0.306743
H      -0.684522    2.005081   -0.333495
H      -0.458293    1.514838    1.334138
H      -2.770700    0.262643   -0.609639
H      -2.316732   -2.359824   -1.206660
H      -0.473650   -2.356664   -1.359572
H      -2.154877   -2.336584    1.261559
