23

C       0.643742    0.323141   -1.141413
O       0.104236    0.325980    0.166824
C       0.611830   -0.662172    1.085653
C       2.077559   -0.329121    1.398094
O       2.212574    0.990575    1.886098
C      -0.276910   -0.559867    2.360183
C      -0.972373   -1.927136    2.519060
C      -0.018542   -2.909507    1.822561
C       0.442090   -2.119709    0.586894
H       0.548855   -0.655748   -1.629112
H       0.066814    1.053189   -1.715027
H       1.700832    0.621558   -1.166195
H       2.452172   -1.008257    2.171990
H       2.699611   -0.488891    0.502199
H       1.593126    1.522096    1.370015
H       0.349271   -0.329731    3.226432
H      -0.984241    0.263939    2.247549
H      -1.171968   -2.183490    3.563092
H      -1.936240   -1.923592    1.996592
H       0.837330   -3.132377    2.471952
H      -0.485413   -3.864425    1.564693
H      -0.351583   -2.135700   -0.168873
H       1.347599   -2.524913    0.124306
