17

O       0.230706    0.952147   -0.311937
C      -0.054282   -0.209015    0.443634
C      -1.487739   -0.675398    0.237373
C      -1.884397   -1.109408   -1.158837
O      -0.883427   -1.131124   -2.136540
C      -1.832079   -2.126455   -0.058034
O      -0.803595   -3.082264   -0.229326
C      -0.309260   -3.670258    0.889993
O       0.530182   -4.513890    0.844100
H       0.150684    0.687146   -1.236800
H       0.647765   -1.018976    0.206072
H       0.101731    0.056929    1.493716
H      -2.241081   -0.130687    0.798882
H      -2.855311   -0.821329   -1.551667
H      -0.480158   -2.008438   -2.134053
H      -2.755132   -2.550324    0.326067
H      -0.774518   -3.279566    1.813147
