23

C      -0.708414    1.297615   -0.007355
C       0.112581    0.008341    0.013448
C       1.218507   -0.048033   -1.068189
O       2.317470   -0.757830   -0.508429
C       1.905529   -1.351674    0.727201
C       3.146893   -1.707189    1.527152
C       0.890780   -0.343238    1.309053
C       1.539509    0.854569    2.000144
O       1.998500    0.424246    3.277242
H      -0.078430    2.187591    0.090752
H      -1.252706    1.388397   -0.953715
H      -1.448326    1.315683    0.799563
H      -0.575405   -0.826735   -0.165412
H       0.864115   -0.546734   -1.981386
H       1.562920    0.956035   -1.350813
H       1.353252   -2.284890    0.513516
H       3.742566   -0.822102    1.757509
H       2.870555   -2.184829    2.470193
H       3.764167   -2.400398    0.947944
H       0.234217   -0.825082    2.041224
H       2.366764    1.242334    1.385724
H       0.804273    1.663643    2.115246
H       2.456548    1.159876    3.694029
