18

C      -0.056858    1.587873    0.056159
C       0.020852    0.091439    0.003035
C      -0.870524   -0.852055    0.798787
C       0.619567   -0.942561    0.930030
O       1.177498   -1.707495   -0.146758
C       0.688690   -0.728579   -1.081104
C       0.269932   -1.094886   -2.464031
C       1.532680   -0.272020   -2.222057
H       0.904209    2.046539   -0.199961
H      -0.811365    1.975524   -0.639349
H      -0.334837    1.928722    1.058340
H      -1.386759   -0.383588    1.632134
H      -1.412686   -1.657216    0.310714
H       1.191323   -0.871192    1.847909
H       0.401558   -2.129816   -2.760317
H      -0.596587   -0.603877   -2.895063
H       1.523386    0.779734   -2.489797
H       2.487539   -0.768313   -2.356891
