21

C      -0.057699    1.634735   -0.080999
C       1.541005    1.718659   -0.052432
C       2.466783    1.634515    1.241456
C       1.701345    0.300427    1.534144
C       1.318294   -1.208485    1.850823
C      -0.138325   -0.589914    1.538465
C       0.385194    0.610998    2.316131
C      -0.062431    0.036824    0.080896
C       1.441894    0.194644    0.003187
H      -0.675597    2.262710    0.564698
H      -0.339878    1.851632   -1.115039
H       1.955478    2.280549   -0.891530
H       3.502211    1.540262    0.895232
H       2.418504    2.392397    2.029130
H       1.734732   -1.970372    1.187614
H       1.374603   -1.534095    2.891525
H      -1.038870   -1.133745    1.831310
H       0.563408    0.400734    3.374914
H      -0.111120    1.574818    2.235058
H      -0.633392   -0.489627   -0.685988
H       2.126270   -0.480752   -0.512427
