15

N       0.033880   -1.098351   -0.029907
C      -0.005263    0.057479    0.008998
C      -0.057042    1.493579    0.062016
C      -0.755244    2.402337    1.097438
C      -0.105246    3.381308    0.101809
C       1.166444    2.480709   -0.088637
C       1.051336    2.507768   -1.624354
C      -0.408273    2.462546   -1.134554
H      -1.847876    2.362362    1.114541
H      -0.346809    2.379676    2.111540
H      -0.117226    4.470165    0.100938
H       2.052314    2.469050    0.546892
H       1.368566    3.430684   -2.117998
H       1.419589    1.630740   -2.163560
H      -1.337241    2.429953   -1.704428
