13

C      -0.035640    1.543944    0.024798
C      -0.004877    0.046200   -0.017931
C      -0.155380   -0.672769   -1.137865
F      -0.347930   -0.176357   -2.337427
O      -0.131221   -2.016468   -1.198453
C       0.063738   -2.660722   -0.007117
N       0.221016   -2.126840    1.127316
C       0.201756   -0.703671    1.233249
O       0.349187   -0.159722    2.303497
H       0.903455    1.926908    0.435693
H      -0.194532    1.973268   -0.965508
H      -0.830794    1.883793    0.695313
H       0.066039   -3.733907   -0.168317
