11

C      -0.035173    1.494277    0.016305
C       0.006133   -0.014103    0.044132
N       0.077260   -0.714940    1.122755
O       0.110353    0.107413    2.246816
C      -0.034508   -0.736625   -1.182628
C      -0.072196   -1.283313   -2.254605
H       0.857879    1.902796    0.499457
H      -0.095483    1.863373   -1.007108
H      -0.896588    1.856316    0.586167
H       0.162385   -0.531521    2.966118
H      -0.104272   -1.785339   -3.189879
