15

O       0.207344    1.357171   -0.368277
C       0.132280   -0.010152   -0.111996
C       0.845986   -0.824913   -1.156330
C       0.104769   -1.835889   -1.609735
C      -1.267317   -1.897332   -0.977841
C      -1.212206   -0.795060    0.075560
O      -0.722845   -1.285555    1.373365
C       0.399845   -0.497970    1.332164
O       1.191021   -0.299325    2.196694
H       0.093238    1.839734    0.457927
H       1.857162   -0.579809   -1.455645
H       0.433679   -2.560841   -2.345746
H      -2.064629   -1.731773   -1.712496
H      -1.469403   -2.863615   -0.500617
H      -2.120652   -0.210077    0.218806
