18

C      -0.045016    1.506029    0.014167
C       0.056330   -0.000383   -0.004040
C      -0.812811   -0.821616    0.906920
C       0.693928   -0.792774    1.138137
C       1.439386   -1.900367    0.499584
C       1.303085   -1.882166   -0.838181
C       0.494728   -0.679794   -1.307337
C       1.831737   -2.844502   -1.737329
N       2.253929   -3.609344   -2.499260
H       0.896024    1.971058   -0.300145
H      -0.832423    1.857064   -0.662946
H      -0.283834    1.875405    1.016269
H      -1.425061   -0.279488    1.620500
H      -1.248790   -1.747584    0.545464
H       1.076173   -0.321511    2.036612
H       1.998413   -2.646771    1.051105
H      -0.355068   -0.977352   -1.932170
H       1.115139   -0.012449   -1.919345
