20

C       0.042985    1.540100   -0.031884
C       0.063220    0.008282    0.060923
C       0.780567   -0.442492    1.340516
C      -1.374017   -0.569977   -0.009682
N      -2.093200   -0.194391   -1.212005
C      -2.604184   -1.269072   -1.913602
O      -3.299706   -1.216783   -2.905663
C      -2.112502   -2.469607   -1.172577
C      -1.434957   -2.079179   -0.092917
H       1.059350    1.942641    0.019817
H      -0.397594    1.884226   -0.971989
H      -0.528134    1.978281    0.795935
H       0.605905   -0.384060   -0.808507
H       0.889396   -1.529199    1.395993
H       1.784427   -0.009717    1.388215
H       0.237762   -0.112045    2.234333
H      -1.915044   -0.229486    0.890355
H      -2.405770    0.741068   -1.408098
H      -2.323529   -3.475739   -1.505651
H      -0.967976   -2.714312    0.647650
