16

C      -0.265539    1.057040   -0.325654
O       0.438283   -0.119276    0.061616
C       0.984818   -0.798243   -1.019951
C       1.455908   -2.186506   -0.779072
C       0.141075   -1.986411   -1.523665
O      -1.064966   -2.230026   -0.875294
C       0.104617   -2.214785   -2.983319
O       1.079457   -2.152393   -3.697711
H       0.406921    1.771545   -0.818251
H      -1.094962    0.823827   -1.005966
H      -0.658438    1.505524    0.588624
H       1.490165   -0.185160   -1.764213
H       2.298625   -2.535253   -1.365177
H       1.364389   -2.575938    0.228756
H      -1.101487   -1.621167   -0.124485
H      -0.911488   -2.428962   -3.378252
