16

O      -0.051224    1.330007    0.105595
C      -0.020483   -0.065266    0.057962
C      -1.397929   -0.656858    0.010767
C      -0.516528   -0.667559   -1.240063
N      -0.517860   -2.146898   -1.310597
C       0.631754   -2.862907   -0.667557
C      -0.172460   -2.943629    0.653872
O       0.011203   -3.422725    1.730570
C      -1.337320   -2.189636   -0.040619
H       0.696905    1.664536   -0.400675
H       0.768712   -0.526116    0.652773
H      -2.271596   -0.063200    0.242364
H      -0.578639   -0.068210   -2.142010
H       0.812601   -3.841327   -1.124831
H       1.578889   -2.316481   -0.618364
H      -2.299321   -2.707768   -0.080083
