21

C      -0.018990    1.391131   -0.099379
O      -0.087620   -0.012224    0.007477
C       0.740251   -0.533902    1.021735
C       0.658141   -2.050553    1.013098
C      -0.580383   -2.697636    0.501967
N       0.660354   -2.720805   -0.299027
C       1.445204   -2.781217    2.067726
C       2.428161   -2.126269    2.969410
N       1.146258   -2.622380    3.503216
H       1.002707    1.731892   -0.326990
H      -0.682616    1.687936   -0.914574
H      -0.348992    1.885092    0.827303
H       1.784709   -0.222245    0.851396
H       0.439196   -0.132583    2.005811
H      -0.881757   -3.659884    0.906519
H      -1.387804   -2.052623    0.173516
H       0.581884   -2.005472   -1.019558
H       1.630546   -3.813331    1.781158
H       3.305081   -2.675934    3.300127
H       2.581807   -1.053498    2.893901
H       0.505484   -1.843152    3.638171
