21

C      -0.169599    1.556015    0.030273
C       0.036794    0.060679   -0.024721
C       0.012468   -0.572982   -1.202378
C       0.127733   -2.036287   -1.540747
C      -0.140333   -3.005677   -0.389028
O      -0.179883   -4.310657   -0.957112
C       0.910238   -2.893411    0.687756
C       1.074177   -1.814280    1.446232
C       0.236005   -0.560484    1.352353
H       0.710471    2.063510    0.447034
H      -0.370093    1.976780   -0.958286
H      -1.012900    1.814206    0.684973
H      -0.129536    0.056296   -2.080295
H      -0.588381   -2.268040   -2.339430
H       1.120124   -2.257124   -1.958889
H      -1.126419   -2.751892    0.037997
H      -0.374797   -4.933953   -0.250214
H       1.570376   -3.751505    0.793757
H       1.861146   -1.810296    2.195924
H       0.684685    0.204329    1.996339
H      -0.755911   -0.743882    1.799767
