16

O       0.046613    1.452357   -0.080308
C       0.070402    0.048723   -0.007274
C       0.065013   -0.587110    1.403146
O      -1.231061   -1.178363    1.176300
C      -1.334651   -0.588796   -0.142816
C      -2.520458    0.365383   -0.270949
C      -3.832854   -0.341764   -0.007437
O      -4.770613   -0.340453   -0.764509
H       0.949610    1.780350   -0.033606
H       0.813902   -0.377133   -0.690994
H       0.831981   -1.345011    1.602344
H       0.051208    0.148580    2.216750
H      -1.394968   -1.372423   -0.908967
H      -2.403267    1.167830    0.467040
H      -2.549333    0.813695   -1.267791
H      -3.877364   -0.877560    0.964860
