18

C       0.057183    1.522015   -0.039753
C       0.003153    0.029697   -0.014399
C       0.841888   -1.000482   -0.760622
C       0.843579   -0.974612    0.764476
C      -0.349672   -1.972874    0.782763
C      -0.351295   -1.998823   -0.742334
C      -1.203879   -0.980165    0.004013
C      -2.682554   -0.770183    0.001999
H       1.097339    1.867425   -0.046984
H      -0.431908    1.931459   -0.931924
H      -0.429573    1.961487    0.839313
H       1.659159   -0.846629   -1.453567
H       1.662384   -0.797387    1.449985
H      -0.656163   -2.737053    1.485522
H      -0.659253   -2.786461   -1.418029
H      -3.206028   -1.732980    0.018824
H      -3.013460   -0.200149    0.878575
H      -3.015298   -0.230106   -0.892665
