21

C      -0.004210    1.360166    0.060401
O      -0.001815   -0.046795    0.083983
C      -1.297090   -0.602895   -0.018541
C      -1.181788   -2.102554    0.013586
C      -0.728555   -2.915273    1.272805
C      -1.361231   -4.063882    0.451121
C      -2.430780   -3.044353   -0.013466
O      -0.493376   -4.177950   -0.687461
C      -0.317330   -2.790759   -1.056706
H       1.033448    1.691435    0.146440
H      -0.426582    1.752975   -0.878368
H      -0.583006    1.782040    0.897575
H      -1.934975   -0.249378    0.809928
H      -1.781293   -0.279525   -0.958140
H       0.339755   -2.981928    1.487889
H      -1.295667   -2.651551    2.167796
H      -1.587309   -5.053610    0.843849
H      -3.163058   -2.797013    0.757832
H      -2.918319   -3.232867   -0.973442
H      -0.680913   -2.621620   -2.078059
H       0.738265   -2.509335   -0.998830
