21

C      -0.029480    1.517755    0.015428
C       1.299503    0.812410   -0.002777
C       0.017795    0.002341   -0.001077
C      -0.363439   -0.747649    1.226861
C      -0.987810   -1.920657    1.094019
C      -1.271757   -2.419497   -0.308185
C       0.022636   -2.237337   -1.163250
C      -0.393094   -0.739147   -1.268806
C      -1.864338   -1.235861   -1.137416
H      -0.339851    2.008556    0.931858
H      -0.357021    2.018361   -0.890232
H       1.878151    0.832036   -0.920869
H       1.899408    0.820117    0.901166
H      -0.122451   -0.318571    2.195793
H      -1.290118   -2.512385    1.951877
H      -1.783289   -3.382889   -0.325041
H       0.978794   -2.477321   -0.692408
H      -0.056356   -2.738859   -2.131637
H      -0.109485   -0.181633   -2.165766
H      -2.256059   -1.571405   -2.101523
H      -2.588671   -0.583958   -0.643568
