20

C      -0.147611    1.559346   -0.076946
C      -0.019681    0.054602   -0.011715
C      -0.022100   -0.669622   -1.146717
C       0.097894   -2.163761   -1.248287
C       0.516016   -2.809459    0.076835
C      -0.237965   -2.151056    1.237790
C       0.054951   -0.665454    1.279927
N       0.329209   -0.223579    2.454758
O       0.624148    1.146134    2.512326
H       0.764603    2.058310    0.257744
H      -0.361794    1.868781   -1.104048
H      -0.950937    1.921327    0.570918
H      -0.124345   -0.136570   -2.090458
H      -0.870007   -2.572635   -1.578781
H       0.805197   -2.421976   -2.046782
H       0.326852   -3.887522    0.057260
H       1.593982   -2.675182    0.227462
H      -1.317839   -2.299965    1.095587
H       0.030255   -2.590761    2.200597
H       0.786222    1.269932    3.453099
