16

C       0.115089    1.387702   -0.374964
C       0.022900   -0.071658    0.132313
C       0.587473   -0.174001    1.483870
N       1.027296   -0.239400    2.550380
C      -1.387407   -0.606936    0.095369
C      -2.180723   -0.951835    1.145104
O      -3.394524   -1.376252    0.709007
C      -3.376951   -1.301798   -0.646580
C      -2.178384   -0.839255   -1.083210
H       1.151445    1.734536   -0.372138
H      -0.271663    1.446419   -1.395230
H      -0.479841    2.049296    0.258870
H       0.652009   -0.695074   -0.517404
H      -2.025150   -0.960121    2.210933
H      -4.280320   -1.611472   -1.145286
H      -1.885392   -0.684829   -2.110223
