21

C       0.051230    1.563687    0.042404
C      -0.038521    0.037321   -0.006869
C      -1.482815   -0.519465   -0.012953
N      -2.207870   -0.007612   -1.182070
C      -1.438331   -2.064640    0.033381
O      -2.756271   -2.538480   -0.081179
C      -2.856725   -3.943694   -0.019854
C      -2.191888   -0.052281    1.199796
N      -2.713278    0.302924    2.167455
H       1.096425    1.882612   -0.003175
H      -0.487998    2.014009   -0.793791
H      -0.381551    1.951703    0.968836
H       0.450982   -0.340428   -0.914133
H       0.497339   -0.400896    0.842353
H      -1.680702   -0.249750   -2.017748
H      -3.095604   -0.498585   -1.248050
H      -0.816106   -2.423104   -0.805235
H      -0.973600   -2.409929    0.970816
H      -3.914415   -4.197271   -0.117406
H      -2.295601   -4.426626   -0.834900
H      -2.482445   -4.334660    0.937927
