18

C      -1.534666   -0.172380   -0.220974
C      -0.027496   -0.138643    0.055559
C       0.802363   -0.634967   -1.110281
C       2.162008   -1.252731   -0.909156
C       0.987511   -2.100643   -1.353615
O       0.604724    0.120896   -2.304511
C       1.300654    1.271378   -2.423985
O       1.166602    2.008661   -3.354202
H      -1.785320    0.436301   -1.093790
H      -1.874628   -1.194047   -0.418135
H      -2.095110    0.211986    0.635920
H       0.283237    0.883629    0.308378
H       0.210509   -0.755424    0.929783
H       2.927894   -1.043623   -1.647234
H       2.529353   -1.357351    0.105868
H       0.545891   -2.792215   -0.644960
H       0.974858   -2.431372   -2.385283
H       2.000596    1.439928   -1.584945
