19

O       0.196428   -0.182765    0.197055
C       0.084141    1.015584    0.132282
C       1.251742    1.976057    0.012810
C       1.116892    2.879765   -1.255347
C       0.487823    4.265877   -0.959145
C       0.742038    4.653546    0.495109
C       2.116037    4.168452    1.005715
C       1.320208    2.873096    1.263534
O       0.090898    3.649382    1.331176
H      -0.913466    1.503987    0.152734
H       2.157441    1.364242   -0.053977
H       2.121549    3.021218   -1.663648
H       0.552410    2.360750   -2.036688
H       0.898305    5.018044   -1.642655
H      -0.596563    4.250151   -1.110765
H       0.411914    5.666514    0.738858
H       2.961162    4.144376    0.314895
H       2.401686    4.656652    1.938306
H       1.504418    2.306214    2.179708
