16

C      -0.037160    1.517189   -0.006189
C      -0.011170    0.014079    0.007645
C      -0.029238   -0.722340   -1.177615
N      -0.008385   -2.054398   -1.256374
C       0.032956   -2.729101   -0.104780
C       0.054583   -2.116007    1.140630
C       0.032393   -0.717419    1.211596
C       0.053738   -0.055365    2.472694
C       0.071714    0.506802    3.537658
H       0.846995    1.934451    0.487660
H      -0.069673    1.897552   -1.030192
H      -0.908851    1.904473    0.532237
H      -0.062679   -0.190435   -2.126911
H       0.049581   -3.813504   -0.180334
H       0.088181   -2.705656    2.049093
H       0.087640    0.999500    4.478474
