17

C       0.025682    1.478829   -0.053812
N      -0.011268    0.024250    0.060583
C      -1.354963   -0.549103    0.008108
C      -1.949989   -0.628710   -1.424882
O      -1.102482   -1.354869   -2.292005
C      -1.338910   -1.893311    0.593904
C      -1.337546   -3.023372    1.023370
C      -1.333688   -4.294321    1.522913
N      -1.333598   -5.377998    1.941445
H       1.069107    1.804468   -0.043510
H      -0.446866    1.891186   -0.960728
H      -0.468937    1.924779    0.816140
H       0.533654   -0.402579   -0.682859
H      -2.017804    0.078282    0.620333
H      -2.965988   -1.046395   -1.388580
H      -2.014774    0.383248   -1.834978
H      -1.142387   -2.284345   -2.038999
