10

O      -0.056784    1.328292    0.009784
C       1.262286    1.758543   -0.000399
C       2.121848    0.717977   -0.014293
N       1.302470   -0.408849   -0.012728
N       1.319276   -1.765442   -0.020342
N       0.060197   -2.105164   -0.010202
N      -0.794959   -1.037549    0.003812
C       0.017884   -0.011361    0.001693
H       1.408932    2.824365    0.004070
H       3.196277    0.682077   -0.024718
