16

C      -0.136742    1.472790    0.038728
C       0.051007   -0.019852    0.012408
N      -1.160680   -0.889792    0.144169
C      -0.537379   -1.655973    1.262635
C       0.797754   -0.933533    1.026727
O       1.580249   -1.503065   -0.064702
C       1.005484   -0.647440   -0.995928
N       1.246836   -0.481813   -2.212383
H       0.825453    1.991900    0.012728
H      -0.707250    1.787960   -0.841354
H      -0.679772    1.787967    0.936002
H      -1.980950   -0.364847    0.424994
H      -0.956195   -1.431956    2.251233
H      -0.525840   -2.739843    1.113912
H       1.431478   -0.626527    1.857501
H       1.975219   -1.117172   -2.543479
