19

C       0.338745    1.517126   -0.487860
C       0.178382    0.021069   -0.249588
C       1.415754   -0.833713   -0.635415
N       1.724077   -1.184001    0.804285
C       0.451506   -0.426479    1.189678
C       0.524256   -1.885510    1.331967
C      -0.280760   -2.870901    0.505355
N       0.403448   -4.022211    0.241500
O      -1.426211   -2.682175    0.146127
H       1.283970    1.886827   -0.074289
H       0.327749    1.744474   -1.559108
H      -0.475877    2.080259   -0.019793
H      -0.777440   -0.331876   -0.642197
H       1.253264   -1.702893   -1.280790
H       2.240043   -0.242607   -1.041146
H       0.425809    0.227260    2.057432
H       0.717906   -2.251568    2.339396
H       1.386646   -4.099291    0.439662
H      -0.032551   -4.717951   -0.341863
