17

C       0.199152    1.033642    0.885063
C       0.034045    0.127581   -0.313290
O       0.852028    0.031368   -1.195874
C      -1.268550   -0.695394   -0.351625
C      -1.512236   -1.422622   -1.644514
C      -1.631766   -2.740103   -1.482496
C      -1.488872   -3.165291   -0.047893
C      -1.247289   -1.844646    0.693375
O      -1.070389   -1.715999    1.875981
H       1.204267    1.456378    0.899243
H      -0.536243    1.845730    0.833034
H      -0.007292    0.474873    1.803526
H      -2.088653   -0.019905   -0.068007
H      -1.559808   -0.901412   -2.591995
H      -1.806212   -3.449019   -2.283116
H      -2.378713   -3.659337    0.363470
H      -0.650526   -3.851034    0.131169
