13

N      -0.091869   -1.073255    0.307097
C      -0.007390    0.061939    0.117172
C       0.057669    1.498086   -0.147349
O       1.261134    2.010402    0.436825
C       1.498452    3.305340    0.196932
C       2.594105    3.981710   -0.218963
N       2.306792    5.344042   -0.190539
C       1.086208    5.412854    0.216947
O       0.510185    4.207320    0.485564
H       0.055368    1.672097   -1.230970
H      -0.820710    1.989930    0.284873
H       3.551539    3.593824   -0.522492
H       0.467642    6.283937    0.362103
