20

O      -0.283160    1.495325    0.104575
C      -0.029544    0.123258   -0.104188
C      -1.315901   -0.684286   -0.165540
O      -2.055896   -0.180676   -1.285331
C      -3.353269   -0.533527   -1.365007
N      -4.056741   -0.171014   -2.342232
C      -5.460068   -0.547606   -2.362671
C      -6.294566    0.707066   -2.639676
O      -5.893979    1.331082   -3.839628
H      -0.857375    1.780965   -0.615305
H       0.547370   -0.051003   -1.025512
H       0.573268   -0.226154    0.740207
H      -1.103471   -1.752964   -0.302009
H      -1.892714   -0.544946    0.757181
H      -3.714351   -1.142549   -0.522890
H      -5.614866   -1.252634   -3.189169
H      -5.793969   -1.032653   -1.430109
H      -7.350956    0.437689   -2.747072
H      -6.209054    1.391165   -1.778299
H      -4.928153    1.343882   -3.811799
