16

N      -0.070508    1.252339    0.178118
C       0.177444    0.058198   -0.150906
C      -0.604129   -1.114547    0.379582
C      -0.938347   -2.133351   -0.727748
O      -0.009575   -2.069682   -1.818083
C       1.256351   -1.616885   -1.466301
O       1.208029   -0.260189   -0.999661
C       1.955235   -2.487698   -0.505124
C       2.540446   -3.217909    0.248230
H       0.591283    1.887751   -0.273022
H       0.008567   -1.598558    1.147150
H      -1.507059   -0.739764    0.861535
H      -0.960118   -3.150639   -0.319622
H      -1.911751   -1.918841   -1.175225
H       1.830456   -1.568089   -2.395209
H       3.062167   -3.859113    0.916184
