17

O      -0.737739    0.987289    0.756027
C       0.214591    0.736669    0.063342
C       1.446247    1.621297   -0.016522
O       2.587534    0.866868   -0.414674
C       3.126828    1.537622   -1.604625
C       2.864304    3.011015   -1.268172
C       1.342084    2.748111   -1.113292
C       1.052661    2.036414   -2.425941
C       2.133181    1.307462   -2.731194
H       0.264626   -0.168057   -0.580031
H       1.608948    2.077306    0.968028
H       4.150259    1.194517   -1.739224
H       3.361383    3.335581   -0.350112
H       3.085354    3.692607   -2.090648
H       0.692964    3.575042   -0.832703
H       0.098025    2.053179   -2.936127
H       2.252382    0.595569   -3.537177
