19

C      -0.059176    1.584740   -0.072018
C      -0.070150    0.084833    0.048265
O       1.209974   -0.593626   -0.159767
C       0.616418   -0.629555    1.107628
C       1.168821   -0.278287    2.503071
O      -0.120309   -0.782258    3.034739
C       0.293420   -1.807430    2.045345
C       1.735936   -1.725555    2.632245
C       2.961823   -2.199085    1.869169
H       0.801211    2.010910    0.449956
H      -0.011899    1.889177   -1.122549
H      -0.973564    2.003746    0.361231
H      -0.898974   -0.422209   -0.447240
H       1.548471    0.661419    2.904517
H      -0.359761   -2.668767    1.905177
H       1.740453   -2.040912    3.679485
H       2.952487   -1.881603    0.825198
H       3.872803   -1.810413    2.336843
H       3.024530   -3.292293    1.893726
