15

O      -0.652461    1.224961   -1.169340
C       0.064902    1.979823   -0.570794
C       1.389408    1.550001    0.052082
O       2.164582    2.658316    0.476538
C       2.733667    3.352394   -0.535425
C       2.757773    3.242256   -1.903228
N       3.528464    4.263069   -2.431181
C       3.952173    4.960424   -1.411143
N       3.494718    4.448572   -0.221376
H      -0.198151    3.045164   -0.387624
H       1.172044    0.967732    0.953357
H       1.943911    0.910414   -0.646305
H       2.279039    2.510671   -2.533298
H       4.583339    5.835052   -1.451089
H       3.671738    4.785355    0.710323
