17

O      -0.173699    0.137526    0.558805
C      -0.078996    1.254341    0.091580
C       1.193424    2.028631    0.067155
C       2.122074    1.871125    1.262158
C       2.484252    1.234636   -0.036961
N      -1.150495    1.893600   -0.540796
C      -1.798234    3.088876   -0.022682
C      -2.503080    1.764585   -0.055491
H       1.154886    2.994903   -0.420925
H       2.664558    2.751972    1.585881
H       1.767525    1.221701    2.054088
H       2.366863    0.160389   -0.115822
H       3.282171    1.666770   -0.629533
H      -1.475556    3.459851    0.947283
H      -2.038861    3.857128   -0.752517
H      -3.262435    1.579091   -0.809422
H      -2.637916    1.232811    0.882297
