21

C      -0.180774    1.735173   -0.491635
C      -0.080770    0.262947   -0.119952
C       0.993939   -0.566791   -0.875973
C       1.691517   -0.687170    0.490140
O       0.673035    0.110350    1.133199
C      -1.452480   -0.373135   -0.016085
C      -1.683365   -1.598040    0.855416
C      -2.244731   -0.260011    1.265017
O      -1.763825    0.440860    2.369541
H       0.812226    2.188051   -0.565420
H      -0.689882    1.855226   -1.454075
H      -0.754826    2.267848    0.272025
H       0.630169   -1.504841   -1.296502
H       1.547952   -0.014658   -1.637058
H       1.741849   -1.698655    0.909284
H       2.678022   -0.217762    0.574148
H      -2.012510   -0.317536   -0.947038
H      -2.353852   -2.374391    0.502119
H      -0.836910   -1.957362    1.431726
H      -3.317674   -0.119351    1.179459
H      -0.800702    0.339557    2.378183
