19

C       0.041618   -1.196244   -0.071129
C       0.063396    0.003531   -0.114312
C       0.057348    1.457951   -0.179077
O       1.314935    1.964984    0.259863
C       1.395001    3.341630    0.184758
C       1.631578    4.057949   -1.117763
C       2.648931    4.173793   -0.000052
C       2.147658    5.179220    1.044939
C       0.866569    4.302035    1.259975
H       0.028987   -2.257358   -0.031110
H      -0.143276    1.788727   -1.209882
H      -0.756141    1.853605    0.448929
H       1.935225    3.406372   -1.931067
H       1.035797    4.918193   -1.417479
H       3.672767    3.848488   -0.134489
H       2.772617    5.227824    1.938747
H       1.980200    6.196358    0.676739
H      -0.103897    4.773194    1.073565
H       0.854843    3.836519    2.248102
