20

C      -0.081494    1.527576    0.028294
C      -0.010459    0.011018    0.006273
C      -0.840765   -0.748660    1.023969
C       0.667880   -0.712185    1.148728
C       1.493801   -1.960556    0.836138
C       2.149174   -1.904506   -0.557295
C       1.172744   -1.442141   -1.612749
C       0.184926   -0.588113   -1.343277
H       0.835044    1.973926   -0.373542
H      -0.920758    1.892169   -0.576360
H      -0.220133    1.901095    1.048098
H      -1.434637   -0.171756    1.726392
H      -1.292008   -1.686240    0.714923
H       1.061468   -0.078351    1.938199
H       2.261911   -2.099703    1.604287
H       0.852690   -2.848529    0.879811
H       3.015642   -1.226911   -0.538017
H       2.550367   -2.890223   -0.818618
H       1.296045   -1.828793   -2.621213
H      -0.501677   -0.273675   -2.127554
