17

N       0.366190    0.920125    0.628439
C       0.131297   -0.187062    0.091412
O       0.923585   -0.987823   -0.709723
C      -0.108636   -2.026092   -0.759534
C       0.146232   -3.217579    0.143601
N       0.707133   -2.819974    1.449683
C      -0.727992   -3.108204    1.351422
C      -1.578151   -1.845293    1.276494
C      -1.079934   -1.101184    0.021183
H       1.321391    1.228914    0.440353
H      -0.335256   -2.297166   -1.791745
H       0.422625   -4.175078   -0.284040
H       1.200390   -3.607791    1.860645
H      -1.124249   -3.991713    1.843053
H      -2.633392   -2.113862    1.163259
H      -1.480992   -1.232623    2.177063
H      -1.888776   -0.657632   -0.561475
