14

C      -0.064090    1.515455    0.101826
O       1.258073    1.910449   -0.303130
C       2.113337    0.785899   -0.610402
C       1.230737   -0.395079   -0.370179
C       0.006775    0.030857    0.030706
N      -0.736923   -1.103594    0.228594
C       0.098562   -2.157607   -0.070376
N       1.300590   -1.761961   -0.437102
H      -0.268259    1.905888    1.110611
H      -0.803096    1.961411   -0.581376
H       2.460907    0.873984   -1.648975
H       2.995838    0.818438    0.043301
H      -1.694391   -1.173799    0.529039
H      -0.235385   -3.182112    0.001435
