19

C       0.013889    1.493141    0.079243
C      -0.009146    0.003498   -0.015932
C       0.020613   -0.750373   -1.130619
C      -0.033597   -2.191415   -0.788508
O      -0.100457   -3.133540   -1.546763
C      -0.028560   -2.286988    0.732874
C      -0.781782   -3.425573    1.371942
C       1.226621   -1.717242    1.373680
C      -0.016588   -0.859416    1.211269
H       0.878580    1.829892    0.664405
H       0.052866    1.964588   -0.905332
H      -0.876657    1.861007    0.604035
H       0.086035   -0.393654   -2.150544
H      -0.414173   -4.379921    0.983198
H      -0.662260   -3.424569    2.459425
H      -1.851767   -3.368448    1.146287
H       1.463351   -2.081801    2.369112
H       2.087224   -1.486802    0.754353
H      -0.554999   -0.538579    2.096511
