17

O       0.139048    1.291904   -0.333119
C       0.070395   -0.069743   -0.024248
C       0.175317   -0.413572    1.524290
C      -1.360340   -0.499860    1.547347
O      -2.078932    0.790464    1.509127
C      -2.708816   -0.036390    0.483289
C      -2.615063   -1.392021    1.304738
C      -1.911327   -2.122542    0.133365
C      -1.384683   -0.674642    0.002729
H      -0.530543    1.725162    0.215123
H       0.783940   -0.587830   -0.669486
H       0.648883   -1.382097    1.703621
H       0.629573    0.343037    2.168450
H      -3.563029    0.383799   -0.055515
H      -3.342452   -1.775341    2.025748
H      -1.182234   -2.883583    0.426968
H      -2.543725   -2.500646   -0.674243
