18

C      -0.020949    1.590239   -0.096778
C      -0.007532    0.065531    0.062805
C       0.802400   -0.641768   -1.085358
O       1.621888   -1.707836   -0.509015
C       1.578344   -1.443173    0.816863
C       0.729802   -0.477182    1.260230
C       0.851331   -0.457892    2.682393
C       1.782304   -1.416069    3.019033
N       2.231578   -2.032410    1.847579
H       0.997815    1.991050   -0.078283
H      -0.492378    1.888583   -1.040300
H      -0.582121    2.059657    0.717020
H      -1.049297   -0.287058    0.045546
H       0.170563   -1.098577   -1.849567
H       1.484149    0.071185   -1.564447
H       0.334032    0.176735    3.385974
H       2.181848   -1.711494    3.974755
H       2.921914   -2.759242    1.786228
