14

C      -0.109439    1.386764   -0.207656
C      -0.088344   -0.088854   -0.036885
N      -1.016913   -0.952801   -0.322101
C      -0.428888   -2.146249    0.041575
C      -1.163753   -3.444682   -0.111340
O      -1.799958   -3.527902   -1.369172
N       0.779773   -2.036192    0.516463
O       1.014227   -0.650220    0.474125
H       0.680050    1.704758   -0.895283
H      -1.077502    1.689819   -0.605632
H       0.063525    1.887320    0.749492
H      -0.460300   -4.276921   -0.034718
H      -1.885981   -3.538450    0.716091
H      -2.267269   -2.694272   -1.501643
