21

C      -0.159642    1.532332    0.241798
C      -0.018540    0.022919    0.019726
C      -1.358354   -0.714260   -0.051633
C      -2.241613   -0.338778   -1.271633
N      -2.768417   -1.617627   -1.792357
C      -2.562144   -2.665749   -0.794901
C      -1.224072   -2.245698   -0.161603
C      -3.641832   -2.739492    0.217108
N      -4.513720   -2.771135    0.976707
H       0.820215    2.015517    0.301325
H      -0.713853    2.009594   -0.573471
H      -0.693530    1.745178    1.174504
H       0.541198   -0.165436   -0.906526
H       0.580001   -0.407359    0.832685
H      -1.923750   -0.493198    0.862120
H      -3.037905    0.357298   -0.981274
H      -1.649183    0.152327   -2.054424
H      -3.728764   -1.555616   -2.104580
H      -2.498894   -3.647154   -1.277800
H      -0.422202   -2.515173   -0.856587
H      -1.033605   -2.733064    0.796358
