20

O       0.717374   -0.553246   -1.093133
C       0.070758   -0.025401    0.046201
C      -1.398137   -0.424738    0.059677
C      -2.316522    0.202930    1.148598
C      -3.362321    0.805300    0.195771
O      -4.413043    1.441447    0.842135
C      -3.502573   -0.324821   -0.870367
N      -2.070721    0.016781   -1.221645
C      -2.442381    1.447407   -0.879637
H       0.087164   -0.440528   -1.818019
H       0.572798   -0.431867    0.931775
H       0.174027    1.071848    0.096177
H      -1.442391   -1.518000    0.074702
H      -2.752495   -0.532828    1.828557
H      -1.825266    0.976700    1.746729
H      -5.011225    1.800718    0.178509
H      -3.668747   -1.356177   -0.546865
H      -4.169485   -0.070059   -1.698910
H      -2.982733    1.896718   -1.717226
H      -1.621919    2.097486   -0.568163
