18

N      -0.335192    0.923055   -0.876944
C      -0.189481   -0.169484   -0.280912
O       0.942080   -0.805436    0.185833
C       0.149046   -1.870677    0.802027
C      -1.138152   -1.256102    0.225306
O      -2.070473   -0.889416    1.202905
C      -3.195450   -0.233675    0.675131
C      -4.333620   -1.069867    0.149142
C      -4.446444   -0.347007    1.478605
H       0.557355    1.401866   -1.012308
H       0.447798   -2.851684    0.428174
H       0.204610   -1.825711    1.891479
H      -1.605949   -1.832751   -0.583234
H      -2.963727    0.703945    0.176781
H      -4.898409   -0.702521   -0.700269
H      -4.215425   -2.147158    0.188853
H      -4.391410   -0.955268    2.374143
H      -5.090720    0.521245    1.554554
