18

C       0.098380    1.448355   -0.158673
C      -0.077750   -0.019728   -0.011515
C      -1.124125   -0.808867    0.348602
C      -0.660068   -2.165982    0.300045
C       0.639808   -2.111036   -0.086754
O       1.013841   -0.802209   -0.282375
N       1.567142   -3.128869   -0.293810
C       2.557854   -2.971044   -1.370777
C       2.976058   -2.879253    0.051357
H       0.879006    1.832559    0.508529
H       0.380461    1.722987   -1.181971
H      -0.837217    1.957289    0.084305
H      -2.111537   -0.466011    0.617081
H      -1.209945   -3.066199    0.520912
H       2.753100   -3.872605   -1.943871
H       2.532017   -2.048067   -1.942074
H       3.230162   -1.894778    0.432376
H       3.480740   -3.712878    0.530651
