19

C       0.056917   -1.241484   -0.128329
C      -0.013466   -0.047496   -0.008741
C      -0.062612    1.403334    0.132271
C       1.323997    2.052112    0.073370
C       2.105457    2.069999   -1.275332
C       2.538369    3.539024   -0.986346
C       1.436439    3.582608    0.073757
C       0.384825    4.586210    0.255958
O       1.430096    4.403459    1.223619
H       0.106451   -2.297017   -0.231044
H      -0.696145    1.827451   -0.657911
H      -0.543015    1.661548    1.085542
H       1.953505    1.643836    0.871170
H       2.898429    1.331182   -1.393500
H       1.430274    2.002008   -2.132782
H       3.530177    3.597890   -0.528789
H       2.482540    4.259158   -1.805664
H       0.427441    5.517765   -0.307637
H      -0.610605    4.291887    0.586319
