21

C      -0.197677    1.551261    0.075800
C       0.000143    0.048579    0.042735
C      -1.215766   -0.729726   -0.426489
C       1.347829   -0.504156   -0.278618
C       0.831883   -0.644842    1.147631
C       1.481391    0.120120    2.231300
O       2.129130    1.140370    2.063683
C       1.324277   -0.413716    3.651257
O       1.969335    0.406487    4.575875
H       0.684824    2.068574    0.453073
H      -0.408643    1.916746   -0.935669
H      -1.051523    1.820715    0.707920
H      -1.495501   -0.422826   -1.440892
H      -1.027180   -1.807458   -0.443714
H      -2.078034   -0.546216    0.224164
H       1.421985   -1.412340   -0.867247
H       2.166799    0.196929   -0.399204
H       0.461581   -1.620157    1.448752
H       0.245759   -0.498702    3.868622
H       1.723156   -1.442587    3.675079
H       2.366179    1.113460    4.039878
