18

C      -0.078982    1.420944    0.035058
C       1.249130    0.747037    0.059790
C       2.081344    0.433386    1.293483
C       1.223457   -0.574953    2.079928
N      -0.077409   -0.025078    2.510467
C      -0.031619   -0.886646    1.313012
C      -0.013070   -0.099443    0.030141
C       0.543739   -0.597132   -1.304807
O       1.670461    0.324526   -1.251228
H      -0.414270    1.849522    0.971060
H      -0.385116    1.938487   -0.869349
H       3.016458   -0.035263    0.973523
H       2.326628    1.311207    1.898412
H       1.711763   -1.299026    2.726316
H      -0.431563   -0.555144    3.301912
H      -0.499349   -1.865343    1.352048
H       0.889936   -1.637522   -1.272129
H      -0.069835   -0.443984   -2.200703
