17

N       0.023993    1.216588    0.057671
C      -0.057096   -0.040389    0.050407
O       0.970515   -0.948739    0.111012
C       0.266143   -2.256675    0.067590
C       1.085548   -3.074349   -0.958559
N       0.322354   -2.338949   -2.071551
C      -0.742333   -2.058798   -1.014595
C      -1.261057   -0.923226   -0.030718
C      -0.853161   -2.004844    1.113579
H       1.000094    1.513011    0.119754
H       2.167899   -2.932270   -0.954845
H       0.835232   -4.136517   -0.986584
H       0.840862   -1.488721   -2.282093
H      -1.491276   -2.848739   -1.083329
H      -2.239917   -0.454429   -0.084728
H      -1.580226   -2.812975    1.194034
H      -0.584515   -1.606218    2.093920
