20

C      -0.019957    1.468639   -0.207791
N      -0.014093    0.020238   -0.044284
C      -1.214728   -0.523265    0.689820
C      -0.920649   -2.029977    0.541795
C       0.369728   -1.962336    1.386014
C      -0.217746   -1.581392    2.773322
O       0.744522   -1.346847    3.784435
C      -0.538370   -0.243007    2.098865
C       0.706290   -0.416932    1.175694
H       0.966317    1.793537   -0.556071
H      -0.750862    1.740935   -0.976379
H      -0.258220    2.038240    0.707488
H      -2.193629   -0.135257    0.407911
H      -1.674952   -2.688206    0.983459
H      -0.765381   -2.292949   -0.505036
H       1.115427   -2.750082    1.278832
H      -1.043838   -2.204667    3.145946
H       1.147807   -2.191659    4.008169
H      -0.789352    0.650922    2.664803
H       1.709529   -0.046153    1.372849
