13

C      -0.001072    1.375345    0.008281
O      -0.022956   -0.053305    0.003094
C      -1.248244   -0.592403    0.010454
N      -2.401927    0.021415    0.021580
C      -3.338857   -1.001697    0.024888
C      -2.731099   -2.221453    0.015746
N      -1.368044   -1.946944    0.006264
H       1.052888    1.655180    0.001155
H      -0.509376    1.773341   -0.874705
H      -0.495587    1.766680    0.902011
H      -4.395901   -0.785715    0.033773
H      -3.107075   -3.230237    0.014904
H      -0.608023   -2.604796   -0.002117
