13

C      -0.014751    1.499622   -0.019513
C      -0.008204    0.009811    0.063753
N      -0.045613   -0.724472   -1.033095
O      -0.029286   -2.089580   -0.668522
C       0.018540   -2.121784    0.669851
C       0.033862   -0.864471    1.184593
O       0.081724   -0.895534    2.524385
N       0.098324   -2.253456    2.897021
C       0.060820   -2.977593    1.795931
H       0.884141    1.916493    0.445262
H      -0.052534    1.810688   -1.064455
H      -0.880499    1.912231    0.507783
H       0.066437   -4.053503    1.879948
