17

C      -0.140196    1.641770    0.018732
C      -0.030807    0.104392    0.043026
C       0.774359   -0.413061    1.251544
C       2.274454   -0.159887    1.116586
C       3.110292   -0.447497    2.347639
O       2.761952    0.233768    0.081747
C      -1.361444   -0.509870    0.027707
N      -2.412417   -0.991211    0.027814
H       0.860657    2.074505   -0.027781
H      -0.704175    1.976514   -0.854944
H      -0.650113    2.009600    0.914170
H       0.497034   -0.216038   -0.862149
H       0.406681    0.029268    2.185414
H       0.639002   -1.496321    1.367425
H       2.893910   -1.445675    2.743034
H       4.169930   -0.362304    2.105183
H       2.859893    0.268184    3.139529
