21

C      -0.066553    1.535576    0.015387
C      -0.016100    0.023024    0.063029
C       1.265192   -0.722313   -0.242679
C       0.707387   -0.716580    1.160201
C       1.420586    0.011453    2.306502
O       1.763651   -0.983925    3.272335
C       0.909748   -2.084781    3.097692
C      -0.579960   -1.858975    3.083217
C       0.198893   -1.990382    1.779607
H       0.875695    1.982222    0.348911
H      -0.252445    1.887906   -1.005182
H      -0.864867    1.931944    0.652861
H      -0.925793   -0.459662   -0.287066
H       1.210235   -1.640476   -0.819142
H       2.158432   -0.133410   -0.431748
H       2.343126    0.514494    2.001933
H       0.762196    0.765022    2.764180
H       1.334785   -2.996032    3.501227
H      -1.208744   -2.696379    3.366948
H      -0.972080   -0.888295    3.368116
H       0.034156   -2.852002    1.143069
