19

C       0.078881    1.555802    0.198513
C       1.574027    1.989922   -0.029836
C       2.251642    0.704657    0.347273
C       2.852659    0.336258    1.480961
C       2.542574   -1.108707    1.835670
C       1.363579   -1.411429    0.892528
O       0.115787   -0.756396    1.282791
C       0.055193    0.010210    0.037428
C       1.484197   -0.440969   -0.285355
H      -0.245533    1.811595    1.210709
H      -0.600056    2.042552   -0.508008
H       1.727991    2.260995   -1.081236
H       1.868537    2.841837    0.586690
H       3.331622    1.016763    2.177052
H       3.371450   -1.812264    1.673913
H       2.244150   -1.202590    2.886771
H       1.197572   -2.475209    0.694243
H      -0.768911   -0.348948   -0.587988
H       1.781170   -0.751549   -1.288475
