18

C       0.037827    1.533420   -0.083446
C       0.011176    0.009562    0.101873
O       0.718109   -0.391627    1.272574
C      -1.362300   -0.509671    0.091477
C      -2.499385   -0.907157    0.123118
C      -3.856548   -1.435805    0.142902
C      -3.877430   -2.973091   -0.064935
C      -5.236030   -3.509478   -0.045062
N      -6.318936   -3.912044   -0.025772
H       1.073524    1.882229   -0.067620
H      -0.422875    1.819568   -1.033327
H      -0.513471    2.026922    0.723599
H       0.568293   -0.453504   -0.721553
H       0.207493   -0.094519    2.034173
H      -4.344756   -1.197087    1.094686
H      -4.459935   -0.960584   -0.638965
H      -3.407195   -3.224295   -1.020760
H      -3.288018   -3.461024    0.717603
