21

C       0.130186    1.532977    0.100906
C      -0.001349    0.017021   -0.094541
C      -1.432843   -0.520385   -0.015092
C      -2.354931    0.038714   -1.099019
C      -1.553008   -2.055195    0.065734
O      -0.920094   -2.490938    1.279754
C      -2.276698   -2.009665    1.343484
C      -2.147552   -0.482499    1.420482
O      -1.441140    0.011813    2.525389
H       1.182963    1.831642    0.080475
H      -0.381961    2.092926   -0.687933
H      -0.289725    1.834684    1.063845
H       0.419085   -0.268635   -1.068838
H       0.604254   -0.500106    0.656953
H      -1.949299   -0.150979   -2.099557
H      -3.347575   -0.423527   -1.051487
H      -2.488362    1.118934   -0.989820
H      -1.615454   -2.777344   -0.741459
H      -3.013992   -2.676880    1.775222
H      -3.101522    0.049118    1.380918
H      -0.700775   -0.593331    2.661526
