18

O       0.184026    1.400484    0.090114
C       0.036567   -0.004798   -0.010801
C      -1.459637   -0.478805   -0.085291
C      -1.348699   -1.780545   -0.888346
C      -2.083237   -2.266511   -2.169136
N      -1.940115   -1.237781   -3.217227
C      -0.799480   -2.181952   -2.946586
C      -0.137341   -1.531202   -1.759881
C       0.660727   -0.581283   -1.291690
H      -0.201166    1.783952   -0.706622
H       0.521856   -0.390888    0.895409
H      -1.920893   -0.571057    0.901305
H      -2.015826    0.268608   -0.662916
H      -1.194102   -2.653547   -0.240921
H      -2.868443   -3.010627   -2.225624
H      -2.416634   -1.594845   -4.047091
H      -0.406228   -2.807947   -3.736560
H       1.561434   -0.160489   -1.722512
