17

O       0.337070    0.109358   -0.216880
C       0.392788    1.298057   -0.296387
O       0.823811    2.075982    0.718322
C       0.911542    3.482107    0.478369
C       2.306103    3.912666    0.164403
C       3.409832    3.175516    0.092544
C       4.582666    4.048615   -0.246025
O       4.048177    5.365256   -0.375606
C       2.651170    5.354680   -0.118563
H       0.092687    1.884093   -1.187456
H       0.224585    3.771064   -0.331979
H       0.546053    3.971140    1.389061
H       3.483724    2.109494    0.259873
H       5.354951    4.033259    0.539211
H       5.072597    3.752161   -1.186533
H       2.105176    5.753001   -0.989813
H       2.416273    6.013350    0.734387
