16

C      -0.129030    1.348157    0.025256
O       0.293223    0.005845    0.163846
C       0.764058   -0.572767   -1.021155
C       1.296329   -1.988960   -0.879069
C       0.212887   -2.937944   -0.585478
N       0.379193   -2.500877   -2.001473
C      -0.222616   -1.182633   -2.050124
N      -1.165013   -0.833635   -2.804032
H       0.663498    1.977838   -0.407104
H      -1.027631    1.437650   -0.600935
H      -0.366086    1.713481    1.026778
H       1.481171    0.091621   -1.529220
H       2.344108   -2.261604   -0.861529
H       0.481290   -3.979188   -0.442625
H      -0.664189   -2.606848   -0.037805
H      -1.382053    0.156666   -2.685404
