20

C      -0.443787    1.397835   -0.130178
C       0.014998   -0.041413    0.011455
O       1.183865   -0.322734   -0.812438
C       2.019583   -0.568345    0.337601
C       2.742475   -1.906840    0.251629
C       2.994222    0.527448    0.510839
N       3.751801    1.387811    0.660606
C       0.784676   -0.470283    1.292128
C       0.827008    0.429307    2.516259
H       0.355566    2.103431    0.110432
H      -0.756975    1.580859   -1.162446
H      -1.298727    1.597313    0.524975
H      -0.801197   -0.721386   -0.259961
H       3.431366   -1.913823   -0.597305
H       3.315302   -2.095632    1.164782
H       2.009104   -2.705435    0.115169
H       0.496487   -1.482170    1.589667
H       1.150500    1.444372    2.274947
H      -0.162060    0.486022    2.982164
H       1.521006    0.030698    3.263278
