18

C       0.008948    1.502845   -0.091221
C       0.036598    0.006003    0.162223
O       1.007549   -0.578518    0.593731
N      -1.144655   -0.645080   -0.139558
C      -1.226738   -2.098215   -0.143736
C      -2.445928   -2.606079    0.651171
N      -2.287130   -2.252855    2.054280
C      -1.262483   -2.617450   -1.522228
N      -1.326798   -3.011973   -2.606481
H       0.743107    1.981696    0.556662
H       0.291291    1.697739   -1.131580
H      -0.978515    1.939955    0.081434
H      -1.853821   -0.139687   -0.649108
H      -0.312377   -2.444378    0.348269
H      -3.361621   -2.220346    0.168217
H      -2.477652   -3.696800    0.562177
H      -2.315716   -1.244117    2.163633
H      -3.053135   -2.632599    2.599785
