12

O       0.331605    0.996485   -0.689058
C      -0.004886    0.075644    0.316766
C      -1.402094   -0.424670    0.132893
N      -2.210508   -0.073014   -0.814926
C      -3.373849   -0.795888   -0.566140
C      -3.189721   -1.552528    0.537669
O      -1.918076   -1.321738    0.999757
H      -0.442669    1.078893   -1.262640
H       0.688939   -0.779554    0.307073
H       0.084618    0.538868    1.311876
H      -4.243312   -0.713092   -1.197893
H      -3.785235   -2.252145    1.097494
