16

O       0.221457    1.185483    0.695685
C       0.000105    0.220791   -0.321903
C      -1.353765   -0.334404   -0.313608
C      -2.463050   -0.798616   -0.244571
C      -3.796383   -1.356538   -0.190751
C      -4.493912   -1.749715   -1.523590
O      -4.625222   -3.124710   -1.055908
C      -3.950724   -2.850277    0.113977
N      -3.610478   -3.587336    1.064001
H      -0.014038    0.777765    1.535849
H       0.187538    0.738174   -1.269415
H       0.728113   -0.603806   -0.261811
H      -4.444370   -0.756441    0.456148
H      -5.470930   -1.299422   -1.709630
H      -3.860076   -1.693447   -2.410191
H      -3.896048   -4.555906    0.911269
