23

C       0.089487    1.496695    0.324836
C      -0.020543    0.037257   -0.152389
C      -1.416826   -0.508656   -0.102792
C      -2.160258   -0.913965   -1.136712
C      -3.510519   -1.378662   -0.726645
C      -4.752220   -0.919364   -1.468923
C      -4.315662   -2.360088   -1.543124
C      -3.451690   -1.451420    0.807041
C      -2.194466   -0.630781    1.197109
H       1.124493    1.847610    0.267127
H      -0.528491    2.156715   -0.292231
H      -0.240580    1.604515    1.362846
H       0.363770   -0.041622   -1.175733
H       0.635439   -0.584255    0.474566
H      -1.843156   -0.896831   -2.175243
H      -5.632104   -0.680796   -0.879654
H      -4.622734   -0.296712   -2.348298
H      -3.892784   -2.722272   -2.474947
H      -4.901783   -3.099449   -1.005686
H      -4.363629   -1.080645    1.283436
H      -3.324279   -2.493695    1.119981
H      -1.609867   -1.115085    1.989108
H      -2.461128    0.362884    1.582665
