17

C      -0.023640    1.472336    0.022729
C      -0.019957    0.020625    0.010834
C      -0.016162   -1.190259    0.003077
C      -0.012409   -2.549040   -0.007353
C      -0.004578   -3.762262   -0.005097
C      -0.015855   -5.187819   -0.050365
C      -0.290223   -6.016051    1.207465
C      -1.341002   -5.926773    0.152857
O      -2.480508   -5.197495    0.464764
H       0.710132    1.866851    0.734913
H       0.220511    1.878092   -0.965716
H      -1.006986    1.863358    0.308055
H       0.664624   -5.633881   -0.770809
H       0.267314   -6.938072    1.324983
H      -0.482666   -5.461277    2.117532
H      -1.505121   -6.793535   -0.487083
H      -2.587211   -4.501834   -0.194106
