20

C      -0.141579    1.539421    0.027422
C      -0.011320    0.037038   -0.007936
O      -1.153191   -0.653811   -0.456324
C       1.321810   -0.627016   -0.298178
O       2.480662    0.132719   -0.432865
C       0.700399   -0.734940    1.084654
N       1.405263   -0.004925    2.102565
C       0.728297    0.205278    3.381650
C       1.855688   -0.760115    3.270731
H       0.774346    2.009515    0.387685
H      -0.340174    1.923886   -0.980323
H      -0.971866    1.839311    0.674475
H      -1.236238   -0.493745   -1.403667
H       1.308442   -1.506902   -0.936138
H       2.683337    0.455863    0.458470
H       0.232227   -1.677880    1.370816
H       0.879773    1.177848    3.840620
H      -0.273384   -0.203504    3.490485
H       1.615589   -1.820583    3.306397
H       2.840153   -0.501884    3.649385
