15

C      -0.022051    1.532886   -0.000656
C       0.000259    0.029866   -0.003806
C      -0.043520   -0.686555   -1.141760
O      -0.025736   -2.039161   -1.191424
C       0.041295   -2.815252   -0.032190
N       0.056744   -4.083968   -0.105128
C       0.089878   -2.073856    1.212921
C       0.070471   -0.725975    1.227320
H       0.876835    1.944261    0.473515
H      -0.076245    1.931895   -1.017073
H      -0.883868    1.917967    0.557066
H      -0.097486   -0.258854   -2.136255
H       0.014734   -4.389023   -1.077837
H       0.141955   -2.670146    2.114629
H       0.107603   -0.188110    2.170215
