19

C       0.041212    1.212921    0.185235
C       0.035302   -0.284406    0.053434
C       0.671224   -1.147390   -1.082906
C       0.014334   -2.154082   -0.090062
O      -0.118383   -3.523220   -0.203063
C       0.628114   -1.319187    1.069196
C      -1.226838   -1.201258   -0.071790
C      -2.233524   -1.297615    1.037484
O      -2.191475   -0.686518    2.079052
H       1.065126    1.592895    0.267141
H      -0.424951    1.688330   -0.684586
H      -0.511424    1.517727    1.078526
H       0.222727   -1.069333   -2.077132
H       1.764513   -1.150936   -1.126729
H       0.754613   -3.923216   -0.124238
H       1.719980   -1.335120    1.141310
H       0.153653   -1.376314    2.047385
H      -1.752996   -1.167671   -1.034467
H      -3.077278   -1.993811    0.825254
