21

O       0.231318    1.515792    0.078479
C       0.102547    0.126349    0.104450
C      -1.356083   -0.349412   -0.039913
C      -1.156667   -1.335710    1.151779
C       0.293219   -0.822070    1.364910
C       1.375125   -1.622642    0.589912
C       1.158375   -0.715111   -0.634214
C       1.186082   -1.072773   -2.089867
C       2.229694   -0.140691   -1.520043
H       1.167301    1.728675    0.166094
H      -2.051003    0.460498    0.193753
H      -1.628643   -0.780471   -1.006963
H      -1.825458   -1.143151    1.993357
H      -1.226450   -2.397011    0.897919
H       0.553262   -0.454419    2.357942
H       2.378494   -1.540727    1.019526
H       1.149295   -2.683811    0.443835
H       1.491601   -2.077882   -2.363277
H       0.424843   -0.645050   -2.735369
H       2.160266    0.909558   -1.788752
H       3.244098   -0.509049   -1.401360
