19

O       0.594507    0.838910   -0.674920
C       0.190140   -0.257589    0.110091
C       0.002761   -0.104263    1.643200
C      -1.204976   -1.081602    1.554104
C      -1.259273   -0.806036    0.039896
C      -2.461372   -0.051095   -0.596881
C      -1.986607   -0.496991   -1.999373
C      -1.921743   -1.701282   -1.029284
O      -3.248699   -1.300448   -0.487971
H       0.035206    1.589972   -0.449160
H       0.907202   -1.054813   -0.113895
H       0.844210   -0.370119    2.285773
H      -0.322931    0.911520    1.894206
H      -0.917583   -2.113582    1.775358
H      -2.098007   -0.839702    2.131106
H      -2.950601    0.874040   -0.285402
H      -2.776104   -0.559536   -2.749217
H      -1.049071   -0.082421   -2.373073
H      -1.765565   -2.760055   -1.240725
