18

C      -0.015542    1.511135    0.028025
C      -0.156494    0.002035    0.109404
O       0.792429   -0.478667    1.055603
C       0.805035   -1.879060    1.210633
C       2.077125   -2.217133    2.018604
C       3.294690   -1.857394    1.296013
N       4.260238   -1.593832    0.719495
C      -0.387718   -2.387267    1.902237
C      -1.357501   -2.799155    2.480029
H       0.996223    1.786593   -0.281501
H      -0.725698    1.916503   -0.698618
H      -0.215207    1.968620    1.000941
H      -1.171895   -0.282614    0.420494
H       0.033824   -0.462697   -0.871248
H       0.875642   -2.367747    0.224858
H       2.040306   -1.671879    2.966445
H       2.093593   -3.286505    2.247975
H      -2.219774   -3.163318    2.982931
