20

C      -0.079423    1.589187    0.277590
C       0.065437    0.121766   -0.138858
O       1.112586   -0.514879    0.574334
C      -1.283052   -0.599280   -0.071302
C      -1.501680   -2.083189    0.013559
C      -0.407351   -3.127154    0.063202
C      -1.852722   -1.199786    1.216142
C      -1.060536   -1.235355    2.412151
N      -0.432096   -1.237609    3.385736
H       0.884445    2.096333    0.185790
H      -0.808975    2.112250   -0.348928
H      -0.412502    1.665835    1.319051
H       0.387076    0.086188   -1.187899
H       0.970023   -0.385547    1.520009
H      -2.035867   -0.066439   -0.648208
H      -2.394179   -2.422414   -0.507325
H       0.471262   -2.775247    0.600574
H      -0.778715   -4.040542    0.539115
H      -0.094302   -3.384928   -0.954082
H      -2.905305   -1.028487    1.416806
