21

O      -0.261246    0.062375    0.000755
C      -0.043903    1.245793    0.008466
C       1.322266    1.892924   -0.002859
C       1.500406    2.753619   -1.287088
C       2.487137    3.909038   -1.056123
C       3.573752    3.512025   -0.012752
C       2.515918    3.882135    1.069367
C       1.916938    4.864072    0.026792
C       1.535307    2.721022    1.297697
H      -0.883651    1.983800    0.026070
H       2.051464    1.079761   -0.022718
H       1.842144    2.101205   -2.097674
H       0.536517    3.171227   -1.609885
H       2.812783    4.343152   -2.004479
H       3.977066    2.495622   -0.031084
H       4.403449    4.223440   -0.014957
H       2.867270    4.292227    2.019245
H       2.431443    5.828729    0.032050
H       0.834630    5.032106    0.043584
H       0.580681    3.130147    1.656815
H       1.898386    2.048241    2.081902
