17

C      -0.044567    1.446509    0.082767
C      -0.030608   -0.006581    0.012238
C      -0.008340   -1.208742   -0.060265
C      -0.009845   -2.669931   -0.113704
O       0.697518   -3.275516    0.961119
C      -0.209427   -3.393316    2.063545
C      -1.543626   -3.809276    1.439013
C      -1.462848   -3.208279    0.034280
O      -2.320854   -3.167690   -0.800436
H       0.656023    1.809849    0.842443
H       0.245455    1.890211   -0.875722
H      -1.040430    1.824465    0.338237
H       0.427328   -3.028787   -1.050999
H       0.212255   -4.129769    2.749532
H      -0.300193   -2.431849    2.588468
H      -1.620591   -4.897421    1.337904
H      -2.434327   -3.455072    1.962199
