12

O      -0.235853    0.198687    0.491104
C       0.039197    1.124578   -0.220364
C       1.368787    1.854175   -0.128199
O       1.351849    2.892489   -1.116575
C       2.435178    3.641351   -1.187318
N       3.513658    3.540520   -0.460118
O       4.307174    4.542093   -0.938895
N       3.638174    5.204257   -1.955184
N       2.511978    4.666723   -2.108633
H      -0.647945    1.520884   -0.997994
H       1.501151    2.279193    0.873622
H       2.197250    1.160542   -0.313530
