17

C       0.018404   -1.245524   -0.144091
C       0.016611   -0.045728   -0.058809
C       0.023904    1.400621    0.069159
C      -0.232133    2.026038    1.492965
C       1.117344    2.762363    1.401871
C       2.225348    1.749058    1.201413
C       1.387313    2.120004    0.021499
C       1.351095    4.093721    1.844447
C       1.524859    5.222645    2.225377
H       0.016500   -2.303920   -0.229651
H      -0.668325    1.840084   -0.654441
H      -1.088715    2.700794    1.492114
H      -0.327694    1.316868    2.318761
H       3.226423    2.165183    1.208025
H       2.137354    0.761791    1.647891
H       1.804402    2.585628   -0.862459
H       1.684267    6.216777    2.561743
