17

C      -0.183039    1.421858    0.621060
C       0.208373    0.008397    0.270579
C       0.321582   -0.461560   -1.163571
N       1.494259   -0.232360   -0.350384
C       2.556680   -0.995702    0.034789
O       3.149177   -1.795432   -0.664539
C      -0.232496   -1.816850   -1.578517
N       0.641217   -2.850270   -1.576991
O      -1.407074   -1.897086   -1.883988
H       0.182561    2.123209   -0.133559
H      -1.272316    1.506699    0.680089
H       0.233230    1.713195    1.590796
H      -0.114563   -0.757829    0.975519
H       0.151798    0.294570   -1.927307
H       2.882953   -0.751173    1.061791
H       1.638896   -2.698458   -1.466716
H       0.299612   -3.739686   -1.906035
