19

C      -0.085645    1.499966   -0.093970
C      -0.053472    0.004770   -0.056363
C       0.845578   -0.970156   -0.852604
N       1.939117   -0.895977    0.221992
C       0.635369   -0.927404    0.977059
C      -0.131835   -0.857446    2.273466
C      -1.552790   -0.850412    1.542800
N      -1.277595   -0.884868    0.054862
C      -0.116171   -1.844378   -0.016369
H       0.937677    1.887693   -0.092578
H      -0.594357    1.856220   -0.995310
H      -0.610437    1.912788    0.774515
H       1.092848   -0.995598   -1.914092
H       2.412617   -1.801226    0.295924
H      -0.003026   -1.723185    2.927777
H       0.046087    0.053252    2.851395
H      -2.150142   -1.724630    1.813864
H      -2.130716    0.044988    1.783724
H      -0.230233   -2.929852    0.013196
