18

N       0.605092    0.146192    0.757134
C       0.004621    0.043020   -0.461995
O       0.356529    0.682075   -1.434309
C      -1.196693   -0.908215   -0.506338
C      -0.920995   -2.315717    0.001357
O      -0.632502   -2.323227    1.405997
C      -1.368240   -3.385863    2.012010
C      -1.966136   -4.131554    0.811343
O      -2.067082   -3.109886   -0.168451
H       1.440886    0.704370    0.818350
H       0.384033   -0.507441    1.492199
H      -2.017802   -0.492884    0.087972
H      -1.516801   -0.966526   -1.547522
H      -0.061454   -2.768636   -0.524182
H      -0.695916   -4.008051    2.611420
H      -2.146400   -2.969864    2.663230
H      -1.299719   -4.938088    0.471041
H      -2.961794   -4.540226    0.992217
