23

C       0.329002    1.037393    0.345909
O      -0.341033   -0.013833   -0.318404
C       0.446386   -0.625527   -1.295744
C       1.471263   -1.688646   -0.992596
C       2.893639   -1.631481   -1.475738
C       0.988059   -2.519052    0.205305
C      -0.338332   -2.840247   -0.547302
C       0.141547   -2.013234   -1.749099
C      -0.124860   -2.371047   -3.184784
H       1.236770    0.685173    0.856815
H       0.616207    1.839374   -0.351936
H      -0.362258    1.446696    1.086715
H       0.744528    0.055754   -2.098088
H       3.538302   -1.113493   -0.754206
H       3.309620   -2.635403   -1.623172
H       2.974001   -1.096811   -2.428322
H       1.601683   -3.409320    0.365900
H       0.893391   -1.983685    1.154850
H      -0.432258   -3.902158   -0.789021
H      -1.263135   -2.498521   -0.076066
H      -1.184040   -2.231712   -3.435088
H       0.458905   -1.748547   -3.871012
H       0.126370   -3.418509   -3.388299
