16

C       0.095207    1.555629   -0.117151
O       0.104871    0.146857    0.084855
C       0.526357   -0.588687   -1.013517
C       0.923502   -2.015868   -0.613510
O       1.472959   -2.365988    0.390363
C       0.468254   -2.917035   -1.758689
O      -0.387737   -2.117647   -2.580824
C      -0.494648   -0.830234   -2.118422
N      -1.308256    0.020605   -2.564409
H       1.099560    1.917400   -0.385013
H      -0.614757    1.841907   -0.898292
H      -0.198699    1.998725    0.836272
H       1.424569   -0.143452   -1.485976
H       1.324491   -3.271720   -2.344579
H      -0.080705   -3.784982   -1.380463
H      -1.905282   -0.386766   -3.286776
