12

O       0.150510    1.407035    0.009339
C       0.007189    0.016144    0.001673
C      -1.489804   -0.317677    0.014305
O      -2.363132    0.501083    0.026791
N      -1.704035   -1.708922    0.009310
C      -2.920237   -2.388200    0.017111
O      -4.013801   -1.898447    0.029936
H       1.089840    1.612742   -0.002625
H       0.452170   -0.454228   -0.892982
H       0.469882   -0.465756    0.881124
H      -0.883087   -2.298109   -0.001098
H      -2.740815   -3.483588    0.010494
