16

N       0.044256    1.154031   -0.528488
C      -0.050663    0.071465    0.117796
O       0.921913   -0.351632    0.991790
C       1.288354   -1.734088    1.009330
C       0.196679   -2.756400    0.685877
O       0.488823   -3.928228    0.620995
C      -1.162688   -2.238016    0.411948
C      -1.808599   -1.271364    1.385855
C      -1.282667   -0.751294    0.077800
H       0.954209    1.585399   -0.354237
H       2.104709   -1.906145    0.295721
H       1.679134   -1.941733    2.009651
H      -1.813146   -2.938699   -0.097947
H      -2.882075   -1.357494    1.501672
H      -1.268195   -1.007275    2.286900
H      -1.986366   -0.459498   -0.690284
