18

C       0.393654    1.477722    0.072624
C       0.093264   -0.008849    0.003635
O      -1.294909   -0.268531   -0.137142
C       0.960787   -0.888791   -0.968112
C       1.357696   -1.818503    0.221457
C       0.564425   -0.898551    1.184667
O       1.814337   -0.445229    1.783777
C       2.555964   -1.307845    0.984584
N       3.788437   -1.530580    0.960207
H       1.444660    1.657524    0.309646
H       0.175479    1.954544   -0.890865
H      -0.224450    1.953100    0.840040
H      -1.590061    0.126520   -0.965008
H       0.339420   -1.392652   -1.710512
H       1.797654   -0.395316   -1.466399
H       1.232213   -2.892848    0.117064
H      -0.171241   -1.202611    1.927699
H       4.284466   -0.962053    1.648953
