17

C       0.200437    1.506243    0.036601
C      -0.106711    0.020349    0.048540
O      -0.442776   -0.552664    1.053271
C      -0.008846   -0.740826   -1.305721
C      -1.333785   -0.491942   -2.076052
C       1.203199   -0.295976   -2.155220
C       0.109300   -2.180271   -1.029810
N       0.222258   -3.319233   -0.875101
H       1.281852    1.659942   -0.049384
H      -0.265741    2.020159   -0.808867
H      -0.143930    1.942328    0.974649
H      -1.447647    0.571927   -2.301545
H      -1.325397   -1.043540   -3.019557
H      -2.192609   -0.822734   -1.487826
H       2.142697   -0.443159   -1.616062
H       1.246824   -0.882317   -3.076468
H       1.114883    0.758443   -2.427542
