18

C      -0.039757    1.523908    0.041675
C       0.034929    0.014659    0.047428
C       0.922375   -0.810624   -0.962877
C       0.716303   -1.938029    0.107680
C       0.768606   -0.796266    1.157285
C      -0.802361   -2.165036   -0.059538
O      -1.632704   -1.647153    0.994356
C      -1.284756   -0.787386   -0.103923
H       0.957943    1.972315    0.088374
H      -0.528824    1.894750   -0.866963
H      -0.613134    1.892314    0.899688
H       0.524047   -0.982626   -1.968352
H       1.952975   -0.448761   -1.021484
H       1.363016   -2.812666    0.165230
H       1.787609   -0.432595    1.305308
H       0.260914   -0.944612    2.108800
H      -1.209766   -2.994079   -0.628123
H      -2.108675   -0.423362   -0.710041
