19

O      -0.072533    1.402053   -0.157155
C      -0.000846   -0.005489    0.025015
C      -1.408366   -0.541648    0.027457
C      -2.306082   -0.502207   -1.248269
C      -3.095212   -1.629190   -0.502091
C      -1.700342   -2.072171    0.055626
C      -3.621622   -0.841398    0.690189
O      -4.714877   -0.855165    1.187650
C      -2.382704   -0.017112    1.103895
H       0.821438    1.755753   -0.143109
H       0.574301   -0.484277   -0.784389
H       0.494149   -0.262255    0.976583
H      -2.827671    0.427636   -1.487126
H      -1.790064   -0.886492   -2.131587
H      -3.786365   -2.309526   -0.994305
H      -1.125503   -2.623672   -0.692816
H      -1.667033   -2.591616    1.017922
H      -2.075829   -0.250380    2.129105
H      -2.565926    1.058033    1.035345
