22

C      -0.118420    1.313955    0.371257
O      -0.058744   -0.080055    0.167627
C      -1.319297   -0.667934   -0.101248
C      -1.107331   -2.189954   -0.161704
C      -0.260721   -2.581094   -1.381118
O      -0.457894   -2.593502    1.042639
C      -2.463294   -2.880562   -0.204576
C      -2.638367   -4.242128    0.349584
N      -3.230774   -3.073106    1.032892
H       0.895912    1.656473    0.588943
H      -0.486788    1.836470   -0.524140
H      -0.774246    1.572364    1.216395
H      -2.031548   -0.424879    0.702140
H      -1.731636   -0.290728   -1.050256
H       0.674363   -2.014818   -1.392380
H      -0.028934   -3.647999   -1.341460
H      -0.796166   -2.375662   -2.314419
H       0.194584   -1.906426    1.228885
H      -3.070007   -2.588180   -1.060163
H      -3.353784   -4.922888   -0.102842
H      -1.773771   -4.711056    0.808039
H      -2.613357   -2.833593    1.807829
