14

N       0.109195    1.407493    0.080583
C       0.018062    0.025354    0.009943
C      -1.097074   -0.798194    0.001138
N      -2.426423   -0.315837   -0.019673
N      -0.720544   -2.109759   -0.000067
C       0.599378   -2.106447    0.006624
N       1.093757   -0.813995    0.026450
C       1.457379   -3.228517   -0.021197
N       2.196686   -4.121600   -0.039294
H       0.746215    1.817406   -0.593186
H      -0.816472    1.806923   -0.033542
H      -2.869596   -0.416603    0.889896
H      -2.985287   -0.857020   -0.672549
H       2.063969   -0.550783    0.087524
