16

C       0.017489    1.472323   -0.091232
C      -0.030122    0.020818   -0.021110
C      -0.075571   -1.183085    0.020747
C      -0.087544   -2.596900    0.124208
O      -0.339741   -3.422700   -1.026345
C      -1.162287   -3.608761    0.115616
C      -0.389420   -4.462124    1.183010
N       0.936197   -4.799224    0.610184
C       0.697847   -3.462503    1.191941
H       0.920018    1.862499    0.391789
H       0.024535    1.813605   -1.132224
H      -0.848909    1.926413    0.402488
H      -2.234795   -3.502874    0.004877
H      -0.833772   -5.020287    1.995425
H       1.430992   -5.339875    1.320896
H       1.280359   -3.059296    2.008901
