20

C       0.057215    1.493765    0.018408
C       0.035387    0.037826   -0.012500
C       0.027217   -1.166237   -0.038446
C      -0.003816   -2.624684   -0.060505
C      -1.433074   -3.216954   -0.038965
C      -2.242578   -2.811037   -1.274046
C      -1.353521   -4.737135    0.102827
O      -2.671879   -5.243549    0.246761
H       0.914417    1.867759    0.589541
H       0.124407    1.914815   -0.991024
H      -0.849244    1.896660    0.483924
H       0.520968   -2.989171   -0.955478
H       0.560856   -3.011179    0.799014
H      -1.941817   -2.835786    0.855338
H      -1.756257   -3.168776   -2.190504
H      -3.244004   -3.244117   -1.232626
H      -2.328068   -1.723471   -1.342621
H      -0.858333   -5.163140   -0.786750
H      -0.734810   -4.995532    0.977904
H      -2.625141   -6.203269    0.274664
