21

C       0.519035    1.256708   -1.026990
C       0.067150    0.107650   -0.146517
O       1.006101   -0.985514   -0.039760
C       0.727830   -0.206457    1.135312
C       1.909159    0.524179    1.728083
O       2.806074   -0.396080    2.330149
C      -1.363227   -0.284683   -0.392908
C      -2.194543   -1.106004    0.553561
C      -2.487707    0.362272    0.384968
H       1.583785    1.464110   -0.918746
H       0.331765    1.010023   -2.077788
H      -0.045806    2.165285   -0.794486
H       0.157630   -0.752197    1.888060
H       2.416405    1.136013    0.971471
H       1.570581    1.191254    2.528745
H       3.045634   -1.031396    1.645513
H      -1.565275   -0.451902   -1.448491
H      -2.879919   -1.821235    0.112802
H      -1.762239   -1.437909    1.489717
H      -2.212145    1.022158    1.201111
H      -3.382447    0.663206   -0.148301
