15

C      -0.016737    1.555212   -0.010788
C       1.499002    1.779699   -0.005864
O       2.002358    1.407809    1.318221
C       1.420678    0.302616    1.847840
N       0.496308   -0.420136    1.360651
C       0.010094    0.013960    0.030832
C       1.119618   -0.287352   -0.974842
C       1.978013    0.736136   -0.998931
H      -0.522989    2.002642    0.847804
H      -0.456713    1.930432   -0.937630
H       1.843678    2.801552   -0.160228
H       1.863793    0.071119    2.814923
H      -0.944171   -0.472823   -0.173335
H       1.227745   -1.238311   -1.482008
H       2.925783    0.785944   -1.519649
