16

C      -0.405458    1.544964    0.075682
C       0.156245    0.135012    0.172242
O       0.602613   -0.341868    1.180795
N       0.098683   -0.553568   -1.055565
C       0.484517   -1.871120   -1.314930
O       0.891068   -2.648340   -0.491929
C       0.350951   -2.241311   -2.779589
C       1.223009   -3.305340   -3.307371
O      -0.145571   -3.553487   -3.021399
H       0.135529    2.133299   -0.673439
H      -1.461442    1.523331   -0.214803
H      -0.309387    2.024236    1.048900
H      -0.281374   -0.038438   -1.835385
H      -0.026225   -1.480342   -3.464642
H       1.492463   -3.290820   -4.362158
H       1.927425   -3.770284   -2.622082
