18

N      -0.049785    1.317327   -0.240549
C      -0.016773    0.079452    0.016779
C      -1.278704   -0.748621    0.084019
C      -1.218352   -1.872566    1.124737
C       0.086577   -2.670666    0.934158
C       1.269511   -1.693442    1.038815
O       1.171597   -0.596734    0.125823
C       0.238625   -3.748626    1.902424
C       0.374908   -4.617636    2.721563
H       0.902680    1.687196   -0.285855
H      -2.117248   -0.073004    0.257782
H      -1.423524   -1.192729   -0.910547
H      -1.236148   -1.460200    2.140457
H      -2.086571   -2.530047    1.030191
H       0.089205   -3.095948   -0.079275
H       1.332193   -1.309399    2.065915
H       2.211925   -2.190376    0.801290
H       0.490941   -5.394936    3.435915
