17

O      -0.165863    1.307456    0.074036
N       0.006710   -0.085081   -0.038342
C      -1.117073   -0.677662   -0.033975
C      -2.504086   -0.066382    0.019051
N      -3.448265   -1.178118   -0.142018
C      -2.712883   -2.342179   -0.621408
C      -1.235292   -2.178742   -0.139562
C      -3.303178   -3.633017   -0.104432
O      -4.116251   -3.687528    0.783773
H       0.740761    1.629770    0.033863
H      -2.670554    0.481025    0.952899
H      -2.603101    0.669401   -0.790231
H      -3.901143   -1.425408    0.731344
H      -2.720989   -2.384508   -1.721518
H      -0.491727   -2.618372   -0.806454
H      -1.111268   -2.632436    0.852529
H      -2.908321   -4.554474   -0.584457
