15

N       0.010831    1.310716    0.142974
C      -0.033800   -0.047175    0.017021
N      -1.100038   -0.735488   -0.154458
C      -0.764620   -2.162149   -0.081524
C       0.751172   -2.255992    0.027798
O       1.428286   -1.648025   -1.071335
C       1.239281   -0.862813    0.132641
C       2.403352   -0.388087    0.813365
C       3.358499    0.070377    1.381978
H       0.877503    1.772823   -0.079879
H      -0.831601    1.804279   -0.110086
H      -1.246412   -2.621827    0.791153
H      -1.132648   -2.687046   -0.971046
H       1.263920   -3.091815    0.495650
H       4.208523    0.454779    1.890010
