19

C      -0.429438    1.521246   -0.043818
C      -0.032417    0.051784    0.006991
O      -1.179743   -0.793544   -0.122439
C       0.949609   -0.405813   -1.090428
C       1.806570   -1.524915   -0.426766
N       1.314796   -1.702423    0.958654
C       0.713397   -0.413355    1.310161
C       1.748869    0.542210    1.734766
N       2.545321    1.319565    2.046432
H       0.441061    2.174269    0.053128
H      -0.930577    1.740906   -0.990718
H      -1.121455    1.767741    0.771534
H      -1.870670   -0.451666    0.456064
H       0.379229   -0.762457   -1.949856
H       1.573024    0.429460   -1.418035
H       1.752386   -2.477980   -0.956318
H       2.859695   -1.229193   -0.391137
H       0.546700   -2.366425    0.938413
H       0.007734   -0.534637    2.138172
