17

C      -0.062202    1.328846   -0.559605
N       0.013042    0.038228    0.103460
C      -1.244591   -0.631296    0.333460
C      -1.143508   -1.949084    1.019485
C       0.017572   -2.548594    1.296097
C       1.287076   -1.939053    0.890675
O       2.361205   -2.475996    1.075514
C       1.238635   -0.586537    0.185415
N       2.301069   -0.041259   -0.271078
H       0.860964    1.876117   -0.371201
H      -0.179303    1.227311   -1.647914
H      -0.916584    1.888263   -0.165667
H      -1.898663    0.024849    0.930393
H      -1.790758   -0.781432   -0.617548
H      -2.090266   -2.412596    1.283282
H       0.075651   -3.509915    1.795289
H       3.085351   -0.652024   -0.035204
