15

O      -0.017509    1.413548    1.647992
C      -0.072788    1.595323    0.461086
C      -1.382390    1.728837   -0.312510
O      -1.147724    2.015378   -1.679558
C      -0.789545    3.352821   -1.916840
O       0.291174    3.774800   -1.124803
C       1.421597    2.926346   -1.215721
C       1.225686    1.648931   -0.402598
O       2.023269    0.750094   -0.374386
H      -1.904395    0.767277   -0.274898
H      -2.016474    2.483379    0.174097
H      -0.548486    3.399791   -2.986949
H      -1.610097    4.040067   -1.672237
H       1.668552    2.662019   -2.253665
H       2.267247    3.477948   -0.792506
