18

C      -0.075702    1.457186   -0.185007
C       0.011353   -0.068513    0.056465
C       0.738309   -0.359743    1.390089
C      -1.341404   -0.630336    0.102213
C      -2.455195   -1.076689    0.176122
C       0.830895   -0.684454   -1.081820
C       0.539763   -1.976092   -1.711076
O       0.236194   -0.740773   -2.371559
H       0.928636    1.893844   -0.202896
H      -0.562088    1.662615   -1.141205
H      -0.648774    1.940968    0.610248
H       0.200454    0.096347    2.225085
H       0.806381   -1.435505    1.572705
H       1.752014    0.054113    1.367344
H      -3.441067   -1.467969    0.228684
H       1.867117   -0.337193   -1.084523
H       1.350582   -2.553369   -2.153241
H      -0.326495   -2.544941   -1.382104
