14

O      -0.307070    1.334600    0.159172
C      -0.006729   -0.035097   -0.025095
C       0.633688   -0.665023    1.243538
O      -0.456980   -0.989185    2.099175
C      -1.627077   -1.083852    1.397786
O      -2.659529   -1.386753    1.909009
C      -1.350812   -0.768581   -0.069877
C       0.838313   -0.235213   -1.214443
N       1.529020   -0.368747   -2.130977
H       0.515812    1.830506    0.243967
H       1.201273   -1.570078    1.000185
H       1.285648    0.044164    1.758852
H      -2.138682   -0.153172   -0.502114
H      -1.284142   -1.706746   -0.628033
