15

C      -0.099480    1.517222    0.004833
C       0.005200    0.025876   -0.009169
C       0.045802   -0.801771   -1.085825
O       0.128107   -2.110280   -0.699769
C       0.138726   -2.102840    0.663288
O       0.274457   -3.284457    1.304080
C       0.060833   -0.835607    1.148921
N      -0.048485   -0.427493    2.493241
H       0.794964    1.986556    0.434069
H      -0.223647    1.913471   -1.006652
H      -0.953053    1.847566    0.607610
H       0.020603   -0.626852   -2.148553
H      -0.457915   -3.867845    1.068443
H       0.091518   -1.213118    3.118375
H       0.630219    0.288235    2.730009
