17

C      -0.081859    1.515402   -0.171067
C      -0.071276    0.035549    0.115387
O       1.176278   -0.656557   -0.021842
C       0.577191   -0.592328    1.279892
C       1.311863    0.139809    2.349882
C       0.828835    0.024838    3.777852
C       2.110437   -0.646422    3.363690
H       0.771344    2.024559    0.281355
H      -0.044441    1.690480   -1.251443
H      -1.002822    1.970375    0.209704
H      -0.915184   -0.506561   -0.318871
H       0.161437   -1.547159    1.615287
H       1.728238    1.095431    2.052264
H       0.881907    0.907363    4.405086
H      -0.034630   -0.603659    3.970693
H       2.112534   -1.727635    3.273354
H       3.049530   -0.227141    3.706350
