21

C      -0.019468    1.553088    0.010677
C      -0.021759    0.043230   -0.009586
C       0.374237   -0.802986   -1.277672
C      -0.353496   -1.937434   -0.477493
C       0.551197   -2.015694    0.762916
C       0.765522   -0.733298    1.066894
C      -1.326621   -0.815436   -0.031143
C      -2.514405   -0.832903    0.863336
C      -2.656212   -0.459053   -0.609143
H       0.998029    1.945994   -0.093634
H      -0.619375    1.963692   -0.808065
H      -0.426979    1.939087    0.952375
H      -0.162144   -0.494849   -2.180840
H       1.441341   -0.937335   -1.472046
H      -0.697524   -2.859198   -0.946157
H       0.897588   -2.915119    1.251893
H       1.334922   -0.291740    1.873429
H      -2.909248   -1.791532    1.185186
H      -2.625682   -0.040208    1.597115
H      -2.862594    0.580364   -0.847543
H      -3.146296   -1.168162   -1.269664
