19

N      -0.171134   -1.216147    0.200118
C      -0.127045   -0.062413    0.149212
C      -0.043010    1.394022    0.084302
C       1.412610    1.901085    0.010042
C       1.454141    3.417529   -0.096957
C       2.789937    4.155146   -0.394852
C       2.072369    4.757312   -1.601602
C       1.569894    3.698256   -2.491619
N       0.766757    4.037394   -1.296835
H      -0.601115    1.746007   -0.789911
H      -0.545395    1.812796    0.964077
H       1.959435    1.588790    0.906973
H       1.916643    1.428729   -0.839070
H       0.970899    3.847786    0.786316
H       3.057776    4.877868    0.377129
H       3.667317    3.541375   -0.621765
H       2.085604    5.804538   -1.884511
H       1.076107    3.997794   -3.410578
H       2.092787    2.746968   -2.553670
