14

C      -0.188596    1.544067    0.025834
C       0.004185    0.057470    0.011180
C       0.047192   -0.672092   -1.105913
O       0.222241   -2.027729   -1.135586
C       0.368327   -2.739198    0.018445
O       0.521298   -3.916057   -0.000460
O       0.331021   -2.036900    1.175870
C       0.154940   -0.648953    1.274448
N       0.135442   -0.093855    2.407206
H       0.656208    2.036823    0.516190
H      -0.287182    1.936747   -0.989227
H      -1.082520    1.810528    0.597535
H      -0.050927   -0.276275   -2.108526
H       0.259026   -0.775158    3.156780
