19

O      -0.156426    1.538940   -0.258589
C      -0.007369    0.195271    0.172410
C      -1.360286   -0.477356    0.008163
C      -1.758044   -0.683270   -1.491336
C      -1.431512   -2.166176   -1.301778
O      -1.151916   -3.075387   -2.038430
C      -1.376841   -2.033994    0.222777
C      -0.254987   -2.828179    0.897214
O      -0.439612   -4.210967    0.667831
H       0.698298    1.975213   -0.194318
H       0.753037   -0.330025   -0.428828
H       0.314026    0.143596    1.224628
H      -2.097685    0.065914    0.601544
H      -2.823225   -0.523840   -1.685674
H      -1.180763   -0.139704   -2.242861
H      -2.335336   -2.351784    0.649727
H       0.726351   -2.488267    0.530070
H      -0.265146   -2.681149    1.982367
H      -0.500288   -4.326336   -0.290385
