17

O       0.042254    0.049414    0.714193
C       0.113290    1.119076    0.172047
C       1.426079    1.767796   -0.234590
O       1.132190    2.980847   -0.884412
C       2.266406    3.712449   -1.270777
C       3.048959    3.209573   -2.530192
C       2.898624    4.630235   -3.102032
O       3.419468    5.219089   -4.002224
C       1.900713    5.027359   -2.003162
H      -0.781836    1.730280   -0.076825
H       2.037005    1.925410    0.670343
H       1.981637    1.070310   -0.881877
H       2.932010    3.874050   -0.411578
H       4.067365    2.833674   -2.410238
H       2.460266    2.486582   -3.106056
H       0.867926    4.994618   -2.366539
H       2.072025    5.976882   -1.492412
