16

O       1.359229    1.683058   -0.508859
C       0.504702    0.681546    0.033852
C       0.238224   -0.387836   -0.931664
C       0.077298   -1.272252   -1.729285
C       1.074517    0.115356    1.328589
C       1.028954    0.933629    2.578301
C       0.157939   -0.310405    2.469483
C      -1.266983   -0.167540    2.355613
N      -2.414908   -0.049897    2.269378
H       2.081716    1.237164   -0.964592
H      -0.434033    1.200561    0.261375
H      -0.094756   -2.045968   -2.436705
H       1.938208   -0.527649    1.186673
H       1.864682    0.892309    3.266621
H       0.523684    1.891590    2.532575
H       0.464896   -1.183343    3.035042
