19

C      -0.522918    1.089209   -0.158295
N      -0.102614   -0.301673   -0.124098
C       0.773935   -0.764059   -0.922288
C       1.481795   -0.034290   -2.038891
O       1.218685    1.084025   -2.404223
N       1.273797   -2.067285   -0.780129
C       0.457469   -3.109741   -0.194095
C       0.840035   -3.185628   -1.637729
C      -0.193043   -2.990039   -2.722779
H       0.315563    1.793191   -0.184143
H      -1.133768    1.298716   -1.044711
H      -1.128910    1.286055    0.730269
H       2.288377   -0.631133   -2.517327
H       0.955301   -3.740411    0.537162
H      -0.567115   -2.838404    0.046901
H       1.660799   -3.849184   -1.904141
H      -0.987106   -2.311196   -2.399553
H       0.256146   -2.585562   -3.636330
H      -0.650781   -3.951108   -2.978788
