19

O       0.018607    1.433146    0.031208
C       0.030014    0.000372    0.011821
C       0.950999   -0.564094    1.067097
C       0.523081   -1.336417    2.065459
C      -0.938009   -1.646737    2.228065
C      -1.817666   -0.379760    2.562043
C      -2.405441   -0.439638    1.152908
C      -1.718433   -1.779530    0.895629
C      -1.371852   -0.593053    0.049927
H      -0.378291    1.698476    0.868040
H       0.460544   -0.232401   -0.970970
H       1.998953   -0.293056    0.972559
H       1.218036   -1.704228    2.816144
H      -1.107825   -2.468695    2.923927
H      -2.574940   -0.608121    3.316853
H      -1.277768    0.522115    2.869161
H      -3.415481   -0.142237    0.896367
H      -2.119445   -2.703993    0.497908
H      -1.854031   -0.597044   -0.924491
