20

C      -0.349364    1.494787    0.096149
C       0.067350    0.049415   -0.021977
C       0.118724   -0.564986   -1.210120
C       0.449114   -2.025495   -1.455675
C      -0.518182   -2.926502   -0.712518
C      -0.715875   -2.916958    0.608146
C      -0.023316   -2.049366    1.588068
N       1.380659   -1.674331    1.346221
C       0.363562   -0.614170    1.278923
H       0.439124    2.102328    0.559462
H      -0.579117    1.926046   -0.881334
H      -1.239166    1.602172    0.730618
H      -0.144383    0.020183   -2.088600
H       0.381239   -2.229949   -2.527555
H       1.476963   -2.242984   -1.152169
H      -1.122117   -3.600519   -1.314888
H      -1.474837   -3.571984    1.029028
H      -0.305791   -2.227049    2.623430
H       1.881179   -1.618398    2.228201
H       0.310184    0.057608    2.134066
