18

C      -0.056694    1.547716   -0.082225
C       0.021919    0.037700    0.011834
C      -1.198843   -0.693430   -0.526838
C       1.305938   -0.704782   -0.195589
O       2.443525    0.042499    0.271810
C       1.967530   -0.068191    1.634672
C       1.946893    1.196031    2.378962
N       1.937175    2.167908    3.004021
C       0.659596   -0.714732    1.178240
H       0.898279    2.023185    0.143420
H      -0.340944    1.839785   -1.099287
H      -0.810548    1.947279    0.603769
H      -1.381158   -0.418055   -1.570799
H      -1.078374   -1.780901   -0.481254
H      -2.092232   -0.432420    0.050436
H       1.494151   -1.483894   -0.925432
H       2.595893   -0.777553    2.187387
H       0.152982   -1.501209    1.720794
