15

O      -0.013618    1.453516    0.122287
C       0.003428    0.035390    0.003266
C      -1.435808   -0.486362   -0.090974
C      -1.464558   -1.414833   -1.307749
O      -2.367274   -2.137576   -1.639394
C      -0.141032   -1.251302   -2.009897
C       0.647526   -0.441438   -1.280748
C       0.153535   -1.883860   -3.238883
C       0.371832   -2.438039   -4.284894
H       0.891465    1.759791    0.242563
H       0.525845   -0.408460    0.865571
H      -1.788469   -1.007404    0.801220
H      -2.107799    0.358239   -0.272711
H       1.655068   -0.147705   -1.556431
H       0.563172   -2.926730   -5.208214
