15

C      -0.000012    1.396311   -0.345525
O       1.361437    1.622536    0.061142
C       1.460564    0.306530    0.634204
C       0.065086   -0.095078    0.083184
C      -0.958515   -0.625718    1.018916
C      -1.427790   -0.177644    2.216827
O      -2.355717   -1.014815    2.668998
N      -2.469607   -2.049868    1.687674
N      -1.658195   -1.791600    0.765236
H      -0.712079    2.000922    0.232441
H      -0.152698    1.587023   -1.413330
H       2.315769   -0.254775    0.242475
H       1.521417    0.334440    1.730633
H       0.131328   -0.772206   -0.768758
H      -1.200016    0.679018    2.830052
