14

C       0.061587    1.490122    0.008267
C      -0.074670    0.015802    0.020982
C      -1.110593   -0.813377   -0.126925
N      -0.618497   -2.128934   -0.015477
C      -1.391176   -3.288414   -0.114273
O      -0.981067   -4.409708   -0.021285
C       0.774855   -2.066940    0.208793
O       1.567349   -2.941744    0.358221
O       1.080490   -0.721192    0.226047
H       0.747178    1.813289   -0.782461
H      -0.911620    1.955576   -0.161468
H       0.462909    1.854483    0.960098
H      -2.153227   -0.609734   -0.301300
H      -2.452267   -3.027509   -0.293301
