17

C       0.188743    1.462080   -0.033937
O       1.193986    0.469317   -0.193790
C      -0.160113    0.028360   -0.000032
C      -0.461009   -0.688329    1.250610
C      -1.350501   -1.677910    1.407982
C      -1.437954   -2.161594    2.839928
C      -0.354686   -1.348964    3.539895
O       0.961275   -1.578986    3.036243
C       0.237092   -0.428632    2.553029
H       0.230683    2.032301    0.893238
H      -0.049019    2.044186   -0.923740
H      -0.624942   -0.387664   -0.894156
H      -1.932439   -2.120347    0.606507
H      -2.426004   -1.965751    3.276864
H      -1.258275   -3.239803    2.928752
H      -0.419096   -1.127888    4.601833
H       0.682289    0.530163    2.797983
