16

O       0.123961    0.691932    1.606153
C       0.078327    1.428121    0.649449
N       1.113707    1.696604   -0.210233
C       2.388370    1.086559   -0.160442
C       3.124895    0.881247    1.104484
C       3.775104    1.781909    0.053822
C       4.326427    0.933355   -1.049162
O       5.359409    0.928399   -1.655441
C       2.978159    0.187692   -1.263714
H      -0.829019    1.995428    0.360636
H       0.904933    2.285542   -1.003154
H       2.745679    1.421300    1.963418
H       3.546605   -0.091684    1.337852
H       4.024317    2.810788    0.282682
H       2.946584   -0.893546   -1.100809
H       2.590651    0.413206   -2.262491
