19

O       0.009189    1.435364   -0.133820
C       0.110690    0.054467   -0.049113
C       0.019418   -0.606308    1.340284
O      -1.424327   -0.149424    1.386053
C      -1.218340   -0.778586    0.040868
C      -2.088603   -1.289169   -1.069464
C      -1.177716   -2.476550   -1.584389
C      -0.026612   -2.751071   -0.522878
C      -0.484193   -1.931541    0.687941
H      -0.688115    1.667927    0.497706
H       0.891462   -0.276068   -0.734364
H       0.589449   -0.430734    2.253839
H      -3.039816   -1.664666   -0.680068
H      -2.301808   -0.557921   -1.853008
H      -1.785941   -3.371853   -1.733165
H      -0.743361   -2.228420   -2.555910
H       0.057831   -3.815962   -0.295700
H       0.940172   -2.436850   -0.922380
H      -1.119612   -2.488843    1.379695
