19

C      -0.259799    1.500617   -0.039640
C       0.038561   -0.000179    0.007842
C       0.875632   -0.360466    1.241803
O      -1.173134   -0.765339    0.130182
C       0.756231   -0.435976   -1.251040
N       1.704410    0.210434   -1.895542
C       2.071050   -0.615792   -2.934358
C       1.335116   -1.771035   -2.915293
N       0.497327   -1.641998   -1.830257
H       0.663948    2.065562   -0.180174
H      -0.916875    1.737929   -0.884125
H      -0.745980    1.817054    0.887534
H       0.358192   -0.043606    2.151852
H       1.032305   -1.441560    1.289705
H       1.850298    0.130056    1.189680
H      -1.818588   -0.382392   -0.474369
H       2.838795   -0.329074   -3.637006
H       1.318916   -2.639466   -3.552296
H      -0.198257   -2.287599   -1.495069
