18

C       0.293650    1.497145    0.264655
O      -0.035634    0.146883    0.034405
C       0.495967   -0.482373   -1.102557
C       0.193404   -0.011911   -2.497233
C       1.603706    0.099975   -1.941404
C       0.525487   -1.958023   -0.821680
C      -0.558370   -2.853697   -1.239296
O       0.690878   -2.822789   -1.941361
H       1.367777    1.636346    0.448077
H      -0.009648    2.154951   -0.562929
H      -0.256656    1.797850    1.159376
H       0.004954   -0.764598   -3.253708
H      -0.373282    0.906485   -2.605204
H       1.976101    1.091618   -1.714734
H       2.353952   -0.586617   -2.318103
H       1.109993   -2.231472    0.057705
H      -0.752629   -3.766835   -0.679780
H      -1.405808   -2.442651   -1.784260
