15

N       0.082941    1.107348    0.764091
C      -0.033394   -0.116534    0.154852
C      -0.605927   -1.301621    0.525638
C      -0.432567   -2.110728   -0.628285
N       0.179410   -1.483411   -1.606412
O       0.444814   -0.196049   -1.094688
C      -0.847705   -3.516072   -0.821301
C      -0.635642   -4.532273    0.224524
O      -1.927323   -3.975341   -0.001260
H       0.806879    1.697085    0.379157
H       0.085054    1.084690    1.772145
H      -1.105459   -1.550785    1.445217
H      -0.879999   -3.841768   -1.858999
H      -0.514116   -5.575139   -0.064779
H      -0.155345   -4.242421    1.157493
