25

C      -1.382261    0.934119    0.860143
O      -1.001929   -0.370649    0.501275
C       0.150038   -0.396907   -0.323407
C       0.506052   -1.834946   -0.590319
C      -0.201200   -2.665238   -1.645384
C      -1.324592   -2.119855   -2.501570
C       1.262452   -2.303453   -1.823161
C       1.697588   -1.321032   -2.897354
C       2.275751   -3.415226   -1.608236
H      -0.590028    1.453605    1.423820
H      -1.628383    1.548564   -0.021510
H      -2.270273    0.856324    1.492610
H      -0.042251    0.163873   -1.250693
H       0.986797    0.113864    0.185344
H       0.749305   -2.363924    0.328349
H      -0.369038   -3.699509   -1.351586
H      -1.152086   -1.091725   -2.827975
H      -1.459024   -2.728640   -3.402702
H      -2.268006   -2.129118   -1.945758
H       0.969230   -0.530625   -3.086395
H       2.643448   -0.839096   -2.622147
H       1.864817   -1.844650   -3.846275
H       2.434198   -3.986656   -2.531036
H       3.247957   -3.012045   -1.299034
H       1.944718   -4.115483   -0.835186
