25

C       0.025967    1.579352    0.010126
C       0.011355    0.048054    0.002108
C       0.662904   -0.519473   -1.270991
C       0.661463   -2.056402   -1.282906
C       1.310244   -2.619386   -0.028565
C       1.819120   -4.035022   -0.042544
C       2.798289   -2.883465   -0.048708
C       0.693345   -2.069967    1.247690
C       0.694691   -0.532999    1.252230
H       1.054183    1.960655   -0.000766
H      -0.488076    1.988170   -0.866546
H      -0.465808    1.978695    0.903775
H      -1.038950   -0.283109    0.013565
H       0.145628   -0.136096   -2.158739
H       1.698968   -0.157066   -1.331400
H      -0.376329   -2.415305   -1.344384
H       1.173974   -2.431476   -2.176257
H       1.728831   -4.622638    0.865839
H       1.705928   -4.612877   -0.954616
H       3.346460   -2.685643   -0.964542
H       3.369353   -2.695365    0.855107
H      -0.342619   -2.429648    1.331441
H       1.228150   -2.454534    2.123770
H       1.731995   -0.171116    1.290407
H       0.199990   -0.159239    2.156787
