16

C      -0.110592    1.461703   -0.020196
C      -0.026452    0.011216   -0.016042
C       0.034878   -1.194014   -0.012548
C       0.123396   -2.597306   -0.008684
C       1.198240   -3.448656   -0.010280
C       2.651785   -3.104478   -0.016721
C       0.581085   -4.728578   -0.004159
N      -0.727825   -4.661099    0.000685
O      -1.032047   -3.312080   -0.002105
H       0.887458    1.912456   -0.029155
H      -0.649858    1.823414   -0.902598
H      -0.636616    1.829296    0.867757
H       3.162984   -3.503258    0.866418
H       3.157829   -3.514863   -0.897475
H       2.788606   -2.020440   -0.024160
H       1.055615   -5.700630   -0.003157
