19

C       0.015447    1.557879   -0.005953
C       0.036883    0.056858    0.065833
C      -1.252672   -0.802103    0.232459
C      -0.345546   -1.865186    0.852886
C       0.980419   -1.854105    0.073606
C       0.717809   -0.856925    1.187559
C       0.845306   -0.765813   -0.956429
C       0.912444   -0.720551   -2.414450
O       1.983950   -0.209424   -1.589307
H       1.026531    1.953877   -0.140566
H      -0.591476    1.896819   -0.854187
H      -0.413178    1.993959    0.902106
H      -1.929513   -0.373734    0.978019
H      -1.812303   -1.044349   -0.679191
H      -0.633925   -2.738662    1.424063
H       1.657131   -2.698008    0.075378
H       1.269146   -0.637258    2.089732
H       1.154587   -1.619715   -2.979781
H       0.356673    0.035833   -2.968086
