21

O       0.004166   -0.083106    0.079299
C      -0.013355    1.124167    0.013622
C      -1.308859    1.926526   -0.011914
C      -1.318191    2.961671   -1.156865
C      -0.066221    3.821874   -1.133092
C      -0.093930    5.170653   -1.799586
C      -0.071946    5.077380   -0.290343
C       1.207826    2.996445   -1.191511
C       1.258386    1.961869   -0.047124
H      -2.148946    1.231311   -0.079077
H      -1.386006    2.458868    0.946512
H      -1.379393    2.433816   -2.118309
H      -2.216077    3.585031   -1.085694
H       0.805080    5.512534   -2.302000
H      -1.015448    5.487472   -2.277030
H      -0.978706    5.333387    0.248378
H       0.841857    5.358449    0.223408
H       1.257145    2.470110   -2.154470
H       2.089829    3.644307   -1.144754
H       1.347102    2.496497    0.909027
H       2.115133    1.290015   -0.137557
