22

C      -0.834592    1.057397   -0.075321
C       0.138185   -0.112780   -0.045806
C       1.519784    0.045066   -0.752574
C       2.213200   -0.651594    0.464822
C       2.537449   -2.124799    0.247485
O       3.307025    0.037305    1.041128
C       0.912807   -0.424007    1.245420
C       0.787949    0.244857    2.555370
N       0.509701   -1.202368    2.411215
H      -0.348387    1.982358    0.251554
H      -1.220777    1.219560   -1.087449
H      -1.696885    0.881443    0.578839
H      -0.366016   -1.019557   -0.403515
H       1.637656   -0.421153   -1.734100
H       1.825387    1.093208   -0.805447
H       3.388187   -2.236595   -0.437227
H       2.780042   -2.599113    1.201938
H       1.689563   -2.659333   -0.191606
H       4.114248   -0.270554    0.616320
H       1.685660    0.481576    3.117337
H      -0.047573    0.922989    2.710168
H      -0.495877   -1.361793    2.391047
