20

C       0.096017    1.251635   -0.335504
O      -0.093117   -0.000429    0.301325
C      -1.376433   -0.537487    0.168852
C      -2.443395    0.153005    0.989297
C      -1.716641   -1.169544   -1.153964
C      -1.363315   -2.063247    0.039948
C      -0.041513   -2.817219    0.038617
C      -2.452177   -2.784777    0.651158
N      -3.317380   -3.375374    1.143297
H       1.158006    1.489691   -0.245894
H      -0.174715    1.209469   -1.399630
H      -0.484828    2.051186    0.142547
H      -2.616553    1.171203    0.626855
H      -3.391916   -0.385268    0.940489
H      -2.132724    0.207988    2.036948
H      -2.745686   -1.153634   -1.494176
H      -0.969849   -1.130557   -1.939356
H       0.748311   -2.183604   -0.364437
H       0.239997   -3.106303    1.055086
H      -0.119825   -3.725294   -0.566113
