15

C       0.199667    1.359989    0.082682
C      -0.158270   -0.102824   -0.169310
O       0.476345   -0.979242    0.754094
C      -1.673091   -0.324459   -0.161764
O      -1.996288   -1.653920   -0.562940
C      -2.064655   -2.599167    0.397412
O      -2.228433   -3.754886    0.150363
H       1.285503    1.482049    0.093496
H      -0.214075    2.012093   -0.692802
H      -0.192813    1.700698    1.049543
H       0.216531   -0.413695   -1.150952
H       0.358688   -0.618311    1.640228
H      -2.080290   -0.114902    0.838496
H      -2.169221    0.337615   -0.876642
H      -1.981748   -2.180870    1.417605
