17

C      -0.634539    1.428826   -0.434168
N      -0.411146    0.019196   -0.133508
C      -1.228688   -0.581506    0.959125
C      -0.118864   -1.622294    1.267133
O      -0.109236   -1.397552    2.697963
C      -0.329756   -0.054815    2.158095
C      -0.467065    1.050438    3.158237
C       0.611617   -0.301877    0.902802
H       0.184928    1.793743   -1.062198
H      -1.561206    1.528360   -1.009055
H      -0.708000    2.088265    0.445429
H      -2.310350   -0.717466    0.907517
H       0.022051   -2.628187    0.877524
H       0.438573    1.114624    3.770057
H      -0.627741    2.014826    2.671719
H      -1.313518    0.849323    3.822835
H       1.679789   -0.111186    0.785380
