12

C       0.002739    1.508769    0.120982
C       0.030368    0.026342   -0.000183
C       0.005579   -0.783080   -1.104464
O       0.049429   -2.063444   -0.691227
N       0.102802   -2.024235    0.721674
N       0.090412   -0.818046    1.085213
C      -0.053332   -0.499611   -2.478874
C      -0.103981   -0.235050   -3.651735
H       0.898016    1.875531    0.632680
H      -0.045863    1.969708   -0.867731
H      -0.865119    1.837033    0.701433
H      -0.148444   -0.007634   -4.688747
