19

C       0.070839    1.562633   -0.016046
C       0.000362    0.039897    0.056709
O       0.681043   -0.461163    1.191314
C      -1.474743   -0.527424    0.021252
C      -1.418779   -2.078988   -0.008786
C      -2.169990   -0.086944    1.240269
C      -2.682593    0.256806    2.272397
C      -2.176065   -0.043034   -1.173368
C      -2.727637    0.319420   -2.177561
H       1.116734    1.876970    0.025706
H      -0.376308    1.936831   -0.939801
H      -0.461512    2.014106    0.828151
H       0.513852   -0.397015   -0.806332
H       0.240688   -0.097624    1.970392
H      -0.833073   -2.435564    0.839367
H      -2.425692   -2.497801    0.037737
H      -0.944144   -2.409356   -0.936652
H      -3.168452    0.562205    3.166424
H      -3.224220    0.648898   -3.056703
