15

C       0.251988   -3.644357    0.060292
C       0.155642   -2.441003    0.043549
C       0.048098   -1.084899    0.026311
C      -0.047292    0.121487    0.011304
C      -0.168403    1.592683   -0.014045
O      -0.741955    2.089069    1.173102
C       0.337161    2.250670    2.094005
C       1.597103    2.338965    1.193743
O       1.088645    2.217120   -0.134896
H       0.335293   -4.702886    0.072921
H      -0.791982    1.909826   -0.855692
H       0.149110    3.160561    2.668555
H       0.393316    1.397913    2.780748
H       2.114724    3.298421    1.263740
H       2.305742    1.532057    1.414402
