13

C       0.049694    1.499187    0.057918
C      -0.065642    0.017273    0.077155
C      -1.122128   -0.853835   -0.033705
C      -2.540060   -0.569017   -0.215348
O      -3.396606   -1.420822   -0.301936
C      -0.502021   -2.137056    0.071928
N       0.787514   -2.053974    0.229400
O       1.067427   -0.671841    0.232743
H       0.703141    1.822076   -0.758757
H      -0.929344    1.962238   -0.073172
H       0.487228    1.861616    0.993554
H      -2.800247    0.510757   -0.271901
H      -0.980608   -3.104911    0.034668
