19

C       0.239479    1.276832    0.016634
C       0.079826   -0.201583    0.154344
O       0.639295   -1.089371   -0.928718
C       0.028618   -2.017359    0.060619
C       0.740097   -1.192729    1.169575
O       2.126952   -1.226114    1.219193
C      -1.199047   -1.079777    0.118146
C      -2.206267   -1.076802    1.252559
O      -2.832203    0.201802    1.235222
H       1.289220    1.563884    0.132948
H      -0.113659    1.611866   -0.963007
H      -0.355348    1.777696    0.785570
H       0.082152   -3.082707   -0.166352
H       0.360223   -1.232480    2.190651
H       2.403502   -1.196921    0.290632
H      -1.696875   -1.008275   -0.851501
H      -2.938685   -1.882340    1.085743
H      -1.732238   -1.268992    2.225237
H      -3.517045    0.212232    1.910533
