20

C      -0.136585    1.395314    0.038168
N       0.007404   -0.051615   -0.034804
C       0.763635   -0.465016   -1.232904
C       2.054436   -0.731715   -0.461866
C       1.165984   -0.551051    0.801932
C       0.827864   -1.976681    1.213260
O       0.671130   -2.667295   -0.031631
C       1.280968   -1.880412   -1.036841
C       1.749764   -2.684392   -2.214187
H       0.809783    1.946360   -0.120053
H      -0.852528    1.728076   -0.720802
H      -0.535820    1.670744    1.019774
H       0.584798   -0.013024   -2.203682
H       3.100540   -0.495542   -0.615658
H       1.478924    0.122837    1.599492
H       1.634086   -2.433893    1.807791
H      -0.113527   -2.034304    1.766544
H       0.914037   -3.234122   -2.658024
H       2.177983   -2.034051   -2.982530
H       2.510807   -3.409079   -1.908402
