19

C      -0.335003    1.437738   -0.095927
C      -0.008305   -0.049033   -0.044780
C       1.227528   -0.519951   -0.781553
N       1.640072   -0.401508   -1.961496
O       1.796972   -1.131717    0.309714
C       0.688696   -0.694906    1.197147
C       1.229307    0.240895    2.264713
C      -0.013782   -1.908719    1.780763
H       0.525819    2.057294    0.167870
H      -0.635691    1.709352   -1.111549
H      -1.159000    1.685774    0.580797
H      -0.886873   -0.630370   -0.342730
H       2.549234   -0.852077   -2.081730
H       1.799692    1.062431    1.825674
H       0.411145    0.663320    2.856875
H       1.891363   -0.307372    2.941905
H       0.657064   -2.460078    2.446922
H      -0.890686   -1.599562    2.359594
H      -0.343965   -2.585915    0.988194
