14

O       0.033410    1.415083    0.008699
C      -0.000775   -0.003702    0.002667
C      -1.386619   -0.454389    0.012721
C      -2.523514   -0.854826    0.020851
C      -3.857117   -1.302460    0.030456
C      -5.054905   -0.642935    0.041444
C      -6.007412   -1.690142    0.046791
N      -5.444574   -2.874703    0.039414
O      -4.078881   -2.639711    0.029003
H       0.958572    1.681032    0.001290
H       0.498695   -0.418332   -0.888465
H       0.514083   -0.426235    0.881240
H      -5.216767    0.421074    0.045150
H      -7.086106   -1.621862    0.055618
