18

C      -0.104225    1.483043    0.036471
C      -0.021346    0.031239    0.017335
C       0.058397   -1.174111    0.001996
C       0.139959   -2.580451   -0.016330
C       1.230509   -3.436491    0.015250
C       0.751202   -4.773120   -0.024961
C       1.571688   -6.028021   -0.010556
C      -0.626253   -4.695477   -0.080307
N      -0.987577   -3.376397   -0.074834
H       0.895953    1.930515    0.035557
H      -0.637504    1.868580   -0.840359
H      -0.626533    1.847001    0.929061
H       2.261447   -3.120267    0.062436
H       2.184791   -6.102252    0.895159
H       0.934253   -6.916315   -0.050210
H       2.256844   -6.075384   -0.864980
H      -1.368702   -5.477072   -0.122703
H      -1.926360   -3.019713   -0.107978
