17

C       0.010739   -1.220152    0.027501
C      -0.036282   -0.017016    0.026481
C      -0.084562    1.411249    0.022863
C      -1.086326    2.278795    0.811767
C      -0.549944    3.391547   -0.111243
O       0.797745    3.548766    0.364195
C       1.281648    2.261516   -0.024458
C       1.172198    2.308597   -1.562804
C      -0.329771    2.321904   -1.259306
H       0.046665   -2.281228    0.029963
H      -2.111846    1.983549    0.576564
H      -0.949280    2.414737    1.886762
H      -1.034692    4.354860   -0.253639
H       2.177668    1.983054    0.526220
H       1.635199    3.163602   -2.060348
H       1.465333    1.367610   -2.034031
H      -1.125466    2.134528   -1.976795
