19

C       0.031201    1.536333    0.000808
N       1.258634    0.714196    0.035545
C      -0.052283    0.055103    0.014757
C      -0.458521   -0.804176    1.227567
N      -1.448866   -1.774172    0.721304
C      -2.625693   -1.023601    0.136089
C      -2.009674   -1.135811   -1.249278
C      -0.996370   -2.091514   -0.671799
C      -0.527301   -0.755121   -1.167474
H      -0.158878    2.107201    0.906751
H      -0.225336    2.055251   -0.920220
H       1.688586    0.688183   -0.886390
H       0.418742   -1.345464    1.598136
H      -0.880230   -0.225587    2.054165
H      -3.538903   -1.615368    0.246514
H      -2.789641   -0.023995    0.554909
H      -2.529060   -1.183370   -2.199080
H      -0.649201   -3.073574   -0.965395
H      -0.006250   -0.683917   -2.116786
