20

C       0.086970    1.530190   -0.031271
C      -0.002273   -0.004461   -0.000217
C      -1.485105   -0.431376    0.046845
C       0.740570   -0.668091   -1.198370
C       1.528654   -1.879086   -0.630239
O       2.819252   -2.055981   -1.203683
C       1.543988   -1.602427    0.855588
C       0.742529   -0.592998    1.185814
H       1.129078    1.865706   -0.024635
H      -0.391518    1.931599   -0.931703
H      -0.414809    1.974161    0.836163
H      -2.033983   -0.021959   -0.808626
H      -1.584713   -1.521067    0.026964
H      -1.970780   -0.068838    0.959622
H       0.063749   -0.948970   -2.009877
H       1.469381    0.033971   -1.619842
H       1.018497   -2.826523   -0.845094
H       3.345498   -1.285356   -0.962042
H       2.139868   -2.198850    1.538208
H       0.573805   -0.227584    2.195034
