20

C       0.062479    1.519875    0.035203
C      -0.036382    0.023494   -0.017526
C      -0.043049   -0.674028   -1.159154
C      -0.073802   -2.155758   -1.172894
N       0.946043   -2.855579   -0.327060
C      -0.472563   -2.868450    0.073063
C      -0.831176   -2.022194    1.272902
C      -0.033953   -0.703504    1.320076
O       1.301637   -0.918541    1.769895
H       0.948082    1.817683    0.609702
H       0.132113    1.962279   -0.962336
H      -0.804944    1.958147    0.545706
H      -0.003843   -0.164114   -2.118479
H      -0.304935   -2.626634   -2.123828
H       1.203386   -3.742564   -0.752303
H      -1.012464   -3.806991   -0.031836
H      -1.905509   -1.801596    1.234455
H      -0.638256   -2.567895    2.203081
H      -0.486592   -0.054373    2.078535
H       1.677658   -1.545147    1.130098
