14

C       0.281579    1.375170    0.177550
N      -0.419855    0.252477   -0.456700
C       0.340244   -0.608375   -1.229131
C       0.732608   -1.907983   -1.138921
O       0.506737   -2.760467   -0.111780
N       1.401639   -2.287107   -2.282560
C       1.410507   -1.213310   -3.009771
O       0.782298   -0.157535   -2.459391
H       1.070871    1.060996    0.876575
H       0.735665    1.995639   -0.598936
H      -0.446414    1.987669    0.715461
H      -0.971521   -0.273835    0.208078
H       0.878975   -3.611019   -0.371810
H       1.869467   -1.065099   -3.973875
