18

O      -0.807173    0.613498    0.302420
C      -0.118069    1.599380    0.251149
C       1.312661    1.629012   -0.250863
C       1.480109    2.666989   -1.345470
N       1.541621    4.077531   -0.920981
C       2.710856    3.475725   -1.568877
C       3.980392    3.348378   -0.739042
C       4.817225    4.540329   -0.833387
C       5.494625    5.527431   -0.936158
H      -0.501072    2.592375    0.575897
H       1.949881    1.888918    0.602490
H       1.584324    0.628980   -0.601562
H       0.905759    2.445812   -2.244524
H       1.034485    4.681001   -1.561251
H       2.903384    3.754032   -2.603464
H       3.717889    3.170313    0.308689
H       4.549029    2.472949   -1.079890
H       6.097618    6.398049   -1.011743
