13

N       0.028964    1.207929   -0.297231
C       0.010575   -0.011189    0.004351
O       1.082936   -0.762093    0.412748
C       0.670445   -2.113593    0.611364
O      -0.741974   -2.149055    0.411456
C      -1.178016   -0.914494    0.003608
N      -2.357262   -0.605643   -0.298929
C       1.356198   -3.015025   -0.308293
C       1.931361   -3.771212   -1.041011
H       0.970385    1.594624   -0.214323
H       0.876806   -2.386101    1.652604
H      -2.981954   -1.409231   -0.217155
H       2.438080   -4.437245   -1.696493
