18

C      -0.127651    1.462918    0.007916
C      -0.020003   -0.042852    0.184660
O       0.740704   -0.550983    0.988915
N      -0.837229   -0.780436   -0.628685
C      -0.937806   -2.218003   -0.522940
C      -2.353492   -2.630837   -0.071578
O      -3.315156   -2.111836   -0.953675
C      -2.469945   -4.137266    0.015280
O      -3.275509   -4.746667   -0.646745
H       0.877900    1.874486   -0.103828
H      -0.737308    1.761230   -0.848644
H      -0.558715    1.894590    0.916045
H      -1.520720   -0.319863   -1.207625
H      -0.726429   -2.685317   -1.492865
H      -0.181920   -2.536999    0.199018
H      -2.512328   -2.229940    0.944448
H      -3.788653   -2.881901   -1.307495
H      -1.774853   -4.649484    0.710175
