13

O      -0.145018    1.371203    0.056573
C       0.022254   -0.024543   -0.031626
C       0.786625   -0.398048   -1.249545
N       1.377998   -0.688077   -2.198581
C       0.695340   -0.573651    1.196104
C       0.423447   -1.647040    1.972922
O       1.343597   -1.675244    2.982438
C       2.126013   -0.597732    2.757993
N       1.797450    0.094717    1.718503
H       0.690056    1.728789    0.388890
H      -0.978171   -0.459142   -0.129563
H      -0.311845   -2.432519    1.963284
H       2.929526   -0.423739    3.455852
