14

N      -0.010596    1.340911    0.010813
C      -0.013775    0.070686    0.003298
O       1.196364   -0.637457   -0.007060
C       1.215743   -1.986723   -0.015015
C       0.112146   -2.748131   -0.013855
C      -1.180364   -2.087827   -0.003451
C      -1.219656   -0.728720    0.004710
C      -2.366684   -2.871603   -0.002050
C      -3.354628   -3.559894   -0.001073
H       0.943993    1.700872    0.008095
H       2.229322   -2.368808   -0.022387
H       0.186501   -3.825912   -0.020509
H      -2.152280   -0.181320    0.012646
H      -4.232328   -4.157741   -0.000081
