17

C      -0.097108    1.499617    0.124366
C       0.000131    0.013169    0.040632
C       0.128932   -0.793749   -1.050948
N       0.297742   -0.585695   -2.411103
O       0.188887   -2.086759   -0.633606
C       0.090531   -2.013968    0.732166
C       0.022560   -3.287808    1.501520
O      -1.280485   -3.864666    1.505358
N      -0.015665   -0.803427    1.171584
H      -0.297714    1.942980   -0.856783
H      -0.907215    1.797759    0.797436
H       0.826031    1.951316    0.506763
H       0.067910    0.359211   -2.687496
H      -0.209196   -1.254089   -2.979295
H       0.676865   -4.037614    1.048642
H       0.379962   -3.080628    2.518209
H      -1.872353   -3.217451    1.904412
