17

C       0.096304    1.567418   -0.046771
C       0.058212    0.060234    0.012338
O      -0.772336   -0.491238    1.065571
C       0.637570   -0.681414    1.150965
C       1.152491   -2.087808    0.972345
C       0.655677   -2.810298   -0.281164
O       0.685160   -4.021177   -0.357370
C       0.205799   -1.971366   -1.412530
C      -0.042681   -0.662343   -1.286246
H       0.956033    1.913466   -0.630435
H      -0.811412    1.955820   -0.521339
H       0.162975    1.989126    0.958442
H       1.118429   -0.102002    1.940872
H       2.249050   -2.058157    0.907611
H       0.913021   -2.708775    1.841210
H       0.071913   -2.491404   -2.355627
H      -0.357762   -0.079009   -2.148390
