14

C      -0.027115    1.509768    0.093605
C      -0.009853    0.026646   -0.011526
C      -0.042179   -0.853704   -1.074936
N      -0.006270   -2.194203   -0.706111
C       0.048032   -2.109538    0.597070
N       0.107749   -2.852257    1.737078
N       0.141249   -2.036211    2.824847
N       0.106580   -0.811537    2.440480
N       0.049541   -0.828785    1.080482
H       0.871962    1.895744    0.587726
H      -0.075985    1.945177   -0.907050
H      -0.891944    1.869976    0.662639
H      -0.090865   -0.580425   -2.119367
H       0.126862   -3.849157    1.862727
