19

C       0.265128    1.550166   -0.360332
C       0.031742    0.094421    0.022946
C       0.627303   -1.025330   -0.876999
N       1.226727   -1.728169    0.303160
C       2.655968   -1.346676    0.529359
C       2.244025   -0.268232    1.571473
O       2.653566    1.065482    1.368118
C       0.775007   -0.588719    1.206950
H       1.320999    1.756780   -0.539628
H      -0.299934    1.790191   -1.268489
H      -0.072377    2.227439    0.431120
H      -1.042791   -0.063893    0.162078
H      -0.100761   -1.645588   -1.409328
H       1.375449   -0.677231   -1.600272
H       3.259799   -2.175336    0.913587
H       3.149391   -0.926732   -0.355172
H       2.465148   -0.584299    2.600286
H       3.564765    1.149194    1.666456
H       0.143454   -0.849009    2.061847
