14

O      -0.823976    0.925650    0.745006
C       0.082309    0.842454   -0.048148
C       1.293357    1.682219    0.027576
C       1.911436    2.471595    1.143942
C       3.299170    1.801905    1.332111
N       3.757889    1.592653   -0.091931
C       2.669859    1.731744   -0.719901
O       2.384524    2.919508   -1.424447
C       1.492706    3.121726   -0.246720
H       0.044487    0.134547   -0.902146
H       1.309455    2.789213    1.991697
H       4.052183    2.460306    1.773443
H       3.219976    0.895766    1.949014
H       0.772257    3.924624   -0.347677
