10

O       0.026208   -0.005438   -0.219963
C      -0.000322    1.192124   -0.041110
C      -1.222271    1.973348    0.173030
N      -1.260342    3.243691    0.363730
O      -0.059818    3.933427    0.368654
N       1.147882    3.343781    0.184032
C       1.194391    2.061023   -0.009245
C       2.494842    1.489358   -0.198363
N       3.530691    1.001255   -0.353870
H      -2.183310    1.466367    0.175767
