17

O       0.414178    1.474205    0.310095
C       0.278310    0.116207    0.132072
C      -0.505139   -0.732580    1.151827
C      -1.091564   -0.106351    2.297665
N      -1.562054    0.389770    3.231174
C      -1.062746   -0.437197   -0.248649
N      -2.090556    0.555523   -0.331421
C      -2.847941    0.638524   -1.579975
C      -3.482376    0.108176   -0.342222
H      -0.483602    1.842395    0.280322
H       1.177478   -0.339594   -0.268709
H      -0.151689   -1.744354    1.321004
H      -1.123469   -1.291748   -0.925070
H      -3.069542    1.642883   -1.926800
H      -2.603385   -0.073233   -2.365593
H      -3.666248   -0.962309   -0.291748
H      -4.170046    0.719798    0.232423
