25

C       0.874329    1.673292    0.108150
C       0.129747    0.343057   -0.000224
C       0.509146   -0.614892   -1.179415
C       1.178833   -0.061621   -2.431822
C       1.314133   -1.531888   -0.185763
C       0.998508   -3.024359   -0.274597
C       2.832052   -1.324795   -0.195954
C       0.598040   -0.773375    0.985130
O       1.315575   -0.430285    2.147551
H       1.961338    1.573443    0.019627
H       0.554958    2.365399   -0.677457
H       0.664198    2.145529    1.073312
H      -0.942748    0.553765    0.063413
H      -0.391640   -1.157430   -1.488569
H       2.083921    0.509997   -2.207522
H       1.461090   -0.871086   -3.114353
H       0.497706    0.601460   -2.976753
H       1.380053   -3.459676   -1.206204
H       1.452864   -3.574082    0.558104
H      -0.081800   -3.202438   -0.242269
H       3.128966   -0.271601   -0.175527
H       3.285491   -1.813452    0.672881
H       3.277903   -1.763198   -1.095042
H      -0.255568   -1.355404    1.345987
H       2.071540    0.107315    1.891429
