21

C      -0.013334    1.462676   -0.146356
C      -0.022912   -0.054664   -0.074146
O      -1.363039   -0.495013    0.028847
C      -1.493917   -1.902054    0.100358
C      -2.976698   -2.226777    0.149825
N      -3.638663   -1.713575   -1.034406
C      -4.804498   -2.283974   -1.487580
N      -5.433805   -1.554306   -2.493710
O      -5.262518   -3.322512   -1.046686
H       1.012945    1.834095   -0.220852
H      -0.571256    1.810683   -1.020627
H      -0.474364    1.892242    0.747482
H       0.451037   -0.490012   -0.969991
H       0.556061   -0.404218    0.796926
H      -1.030190   -2.374614   -0.780817
H      -0.991741   -2.294312    0.999588
H      -3.135065   -3.306506    0.179625
H      -3.407216   -1.803585    1.068952
H      -3.458791   -0.742405   -1.236546
H      -4.845025   -1.018604   -3.114412
H      -6.136735   -2.098026   -2.971493
