16

C      -0.029754    1.546263    0.006406
C       0.022710    0.018095   -0.000168
C       0.728829   -0.514064   -1.244519
O       0.818594   -1.946176   -1.234013
C       1.022670   -2.514091   -0.020007
N       1.033233   -1.984361    1.127158
C       0.744145   -0.555919    1.226984
H       0.978781    1.975258   -0.013752
H      -0.576512    1.934041   -0.859721
H      -0.528832    1.915456    0.907907
H      -1.001752   -0.377194   -0.008167
H       0.195263   -0.256210   -2.163307
H       1.745575   -0.101736   -1.311910
H       1.189394   -3.583112   -0.141425
H       1.688857   -0.018318    1.395191
H       0.142821   -0.396016    2.129529
