19

C       0.035654    1.529920   -0.072595
C      -0.012442    0.005138    0.056100
O       0.602585   -0.444328    1.261347
C      -1.425906   -0.522495    0.001071
C      -2.606496   -0.239304   -0.997677
C      -3.257422   -1.203998    0.055016
C      -1.917152   -2.015987   -0.023051
C      -2.502422   -0.359667    1.086509
O      -2.629716    0.140648    2.164981
H       1.066391    1.877167    0.034503
H      -0.344151    1.859342   -1.045153
H      -0.572271    2.002492    0.707362
H       0.583887   -0.444651   -0.747163
H       0.095252   -0.074741    1.994752
H      -2.990973    0.780617   -1.056347
H      -2.474908   -0.683311   -1.987599
H      -4.273289   -1.590723    0.067161
H      -1.757434   -2.521094   -0.979042
H      -1.649828   -2.647192    0.825067
