23

C      -0.209395    1.559110   -0.041502
C       0.036355    0.056990   -0.010533
C       1.176530   -0.548206   -0.892571
C       1.666173   -1.413861    0.309808
C       2.911849   -0.865562    1.054119
C       1.976198   -0.012100    1.952083
C       1.467240   -0.719680    3.246555
C       0.116578   -1.070101    2.546568
C       0.700708   -0.576291    1.219803
H       0.713277    2.114052    0.161808
H      -0.581041    1.880743   -1.020868
H      -0.950673    1.858820    0.708297
H      -0.903241   -0.471891   -0.218630
H       0.845228   -1.103389   -1.773222
H       1.915947    0.192403   -1.215283
H       1.565439   -2.494288    0.184078
H       3.495643   -1.610995    1.604215
H       3.600271   -0.299667    0.418064
H       2.187106    1.054836    2.051146
H       2.067109   -1.588149    3.533800
H       1.374018   -0.068765    4.118822
H      -0.217764   -2.111939    2.584289
H      -0.705074   -0.438008    2.901147
