17

C      -0.051749    1.587997   -0.073623
C       0.040296    0.087797    0.090520
N       1.196921   -0.739564   -0.254356
C       2.446443    0.009069    0.153221
C       2.018398    0.100022    1.637101
C       0.730110   -0.600068    1.222314
C       0.129067   -1.749032    1.922621
O       0.393634   -2.061474    3.059064
H       0.790656    2.125883    0.364209
H      -0.107257    1.848352   -1.135988
H      -0.964588    1.952610    0.407391
H      -0.866165   -0.425109   -0.230531
H       3.310403   -0.634715   -0.016170
H       2.592737    0.946605   -0.390394
H       2.619486   -0.522055    2.300686
H       1.914906    1.092069    2.084066
H      -0.598993   -2.325990    1.308569
