17

C      -0.116579    1.538971    0.180873
N       0.035990    0.100011    0.131165
C      -1.165444   -0.726295    0.394714
C      -0.338602   -1.616628    1.351985
O       0.467037   -2.611340    0.700249
C       1.635519   -1.740451    0.686873
C       0.801446   -0.559902    1.205751
C      -0.941670   -2.071744    2.588848
N      -1.427245   -2.407389    3.582964
H       0.860563    2.018195    0.064704
H      -0.748466    1.866155   -0.650823
H      -0.572982    1.904188    1.119643
H      -1.958425   -0.186398    0.932664
H      -1.585917   -1.232997   -0.478796
H       2.401095   -2.108474    1.379936
H       2.046527   -1.618233   -0.318465
H       1.179426    0.072356    2.011081
