16

N      -0.099849    1.341341   -0.022583
C      -0.124265   -0.045140   -0.044817
C      -1.222345   -0.897684   -0.011700
C      -2.657912   -0.488527   -0.009996
O      -2.920043    0.573576   -0.943973
C      -0.631644   -2.183607    0.006085
O      -1.326568   -3.342203    0.032166
N       0.688008   -2.166497   -0.009732
N       0.981671   -0.821929   -0.050392
H       0.670593    1.756736   -0.529922
H      -0.988415    1.709990   -0.344970
H      -3.295808   -1.359872   -0.208684
H      -2.969378   -0.074623    0.956359
H      -2.667188    0.243432   -1.813498
H      -0.677813   -4.057299    0.025821
H       1.942677   -0.533317   -0.010804
