19

C      -0.069055    1.207286    0.490042
O      -0.076835   -0.016253   -0.237016
C      -1.322624   -0.643540   -0.216874
C      -1.391154   -2.062199   -0.703758
C      -0.197132   -2.772472   -1.298545
C      -1.460932   -1.776960    0.805320
O      -0.321516   -2.040020    1.574287
C      -2.699706   -1.968178    1.501217
C      -3.759486   -2.121965    2.049459
H       0.943344    1.610464    0.421898
H      -0.773946    1.927087    0.052307
H      -0.332802    1.053224    1.544497
H      -2.169127    0.020127   -0.385604
H      -2.347475   -2.321192   -1.149212
H       0.719489   -2.550652   -0.751097
H      -0.349355   -3.855581   -1.272166
H      -0.048906   -2.473844   -2.341221
H       0.345781   -1.400826    1.287091
H      -4.687716   -2.263287    2.544973
