20

C      -0.146041    1.473751    0.131540
C      -0.157686   -0.042757    0.114854
O       0.608626   -0.458283   -1.028499
C       0.718878   -1.770530   -1.220481
N       0.181247   -2.627297   -0.443652
N       1.479903   -2.076607   -2.353493
C       2.124538   -1.275986   -3.289546
N       2.155980   -0.014414   -3.308821
C       2.894043    0.606422   -4.386893
H       0.875981    1.854279    0.209478
H      -0.591552    1.876473   -0.782101
H      -0.719883    1.838056    0.988980
H       0.289457   -0.470596    1.017702
H      -1.170824   -0.448511    0.030930
H       0.366676   -3.582315   -0.739058
H       1.574457   -3.065154   -2.514712
H       2.624981   -1.904792   -4.043324
H       3.356187   -0.111737   -5.086202
H       2.228934    1.263314   -4.959899
H       3.686764    1.241704   -3.974304
