16

O      -0.271776    0.139841    0.596205
C      -0.149437    1.260289    0.199041
O      -1.194859    2.005622   -0.246548
C      -0.761999    3.327391   -0.615438
C       0.586871    3.528214    0.089801
C       1.132728    2.096364    0.120091
C       2.117343    1.780994    1.258532
C       2.806868    0.502652    1.091623
N       3.392956   -0.482053    0.948012
H      -0.664661    3.374058   -1.706307
H      -1.535093    4.030504   -0.300852
H       1.232845    4.236441   -0.432475
H       0.429256    3.896032    1.109937
H       1.607381    1.860195   -0.840700
H       2.878698    2.567475    1.309342
H       1.591925    1.779259    2.219653
