15

O      -0.429645    0.473300    0.641941
C       0.126549    1.115192   -0.216994
C       1.321574    1.983519   -0.016726
C       1.475909    2.829210    1.226696
C       0.656146    2.529170    2.483905
N       1.271989    1.294719    2.941390
C       2.065174    0.704014    1.984330
O       2.505769   -0.411469    1.975617
N       2.382386    1.721624    0.987669
H      -0.249606    1.120499   -1.262706
H       1.722787    2.391539   -0.941138
H       1.875367    3.830791    1.100883
H       0.781293    3.337430    3.211887
H      -0.413787    2.403553    2.280709
H       0.786369    0.674978    3.570879
