20

C       0.110684    1.633224   -0.362716
C       0.061737    0.147158    0.017786
C      -1.349134   -0.475299    0.026487
C      -2.135766   -0.580226   -1.320521
N      -2.353400   -2.057725   -1.145479
C      -1.007687   -2.657390   -1.140849
C      -1.468115   -1.999193    0.095006
C      -2.203890    0.193486    1.084233
O      -2.564145   -0.329292    2.107846
H       1.148029    1.971059   -0.442196
H      -0.370152    1.813873   -1.330262
H      -0.383106    2.269200    0.377753
H       0.677583   -0.421013   -0.687561
H       0.515362   -0.000219    1.006018
H      -3.092690   -0.051362   -1.328882
H      -1.578820   -0.318608   -2.227385
H      -1.030991   -3.742793   -1.160112
H      -0.228593   -2.214173   -1.757836
H      -1.722755   -2.539789    0.998882
H      -2.491198    1.243938    0.850861
