16

N       0.292792    1.013138    0.726541
C      -0.088075   -0.163304   -0.041518
C      -1.585612   -0.233598   -0.204484
O      -2.117983    0.427760   -1.368710
C      -2.115870   -0.997331   -1.327777
C      -1.145847   -1.700121   -2.245195
O       0.116600   -1.046251   -2.373541
C       0.638749   -0.262807   -1.400424
O       1.675571    0.306151   -1.603804
H       1.307077    1.085729    0.711397
H      -0.035513    1.839606    0.230996
H       0.219732   -1.053549    0.530228
H      -2.167532   -0.096900    0.704455
H      -3.096932   -1.466933   -1.257405
H      -0.993894   -2.727044   -1.885109
H      -1.545220   -1.758205   -3.262212
