18

C      -0.099518    1.545699   -0.054248
O      -0.236693    0.137159   -0.066407
C       0.590473   -0.530580   -0.992952
C       2.129354   -0.573710   -0.680044
C       2.101774   -2.100180   -0.954683
C       0.560240   -2.072712   -0.788575
C       0.310722   -0.134906   -2.374962
C       0.084927    0.187798   -3.511500
H       0.927051    1.852318    0.194525
H      -0.372855    1.989840   -1.020164
H      -0.775779    1.919160    0.717781
H       2.788791    0.049458   -1.285754
H       2.282032   -0.353303    0.379987
H       2.398152   -2.334234   -1.979686
H       2.665282   -2.738967   -0.272746
H       0.250990   -2.278365    0.238866
H      -0.051197   -2.653345   -1.480104
H      -0.119386    0.469586   -4.514993
