13

N       0.099366    1.309110    0.007240
C       0.021972    0.050063    0.004177
N      -1.208592   -0.637019    0.011886
C      -1.254544   -2.032290    0.008277
O      -0.316127   -2.783746   -0.001332
C      -2.734214   -2.369236    0.018819
O      -3.403537   -1.112233    0.027680
C      -2.514857   -0.078240    0.023715
O      -2.827571    1.065590    0.029422
H       1.078744    1.592879    0.000337
H       0.842390   -0.672122   -0.004396
H      -3.013228   -2.940300   -0.871806
H      -2.999336   -2.945472    0.910355
