16

O      -0.078008    1.449627   -0.091766
C       0.037389    0.039355   -0.070626
C      -1.375094   -0.522807    0.126928
C      -1.424662   -2.010301    0.122675
C      -1.677554   -2.893997    1.098447
O      -1.594689   -4.184690    0.618447
C      -1.277123   -4.130304   -0.726458
O      -1.139904   -5.086800   -1.437656
N      -1.165819   -2.787051   -1.015255
H       0.802387    1.826368   -0.179305
H       0.467108   -0.344258   -1.010272
H       0.684015   -0.308867    0.748945
H      -1.768165   -0.155454    1.079334
H      -2.020172   -0.112120   -0.660234
H      -1.926016   -2.774766    2.138338
H      -0.978710   -2.456581   -1.945419
