20

C      -1.650326   -1.321276    1.592098
C      -2.529888   -0.055628    1.608856
O      -2.612255    0.488362    2.901749
C      -1.942682    0.988321    0.658784
O      -1.393512    1.969120    1.122534
C      -1.989483    0.790958   -0.825248
N      -2.749092   -0.341945   -1.372620
C      -3.235849    1.011350   -1.637741
C      -4.571137    1.424344   -1.069245
H      -2.031746   -2.016632    2.343796
H      -1.674085   -1.808125    0.614495
H      -0.616655   -1.071689    1.851804
H      -3.533600   -0.335233    1.265824
H      -2.065988    1.290389    2.873873
H      -1.064694    1.099656   -1.308773
H      -2.274571   -0.735826   -2.179718
H      -3.035208    1.414783   -2.630038
H      -4.741801    1.001019   -0.077701
H      -4.633375    2.514713   -0.994384
H      -5.380303    1.083480   -1.723535
