17

C      -0.055873    1.398717   -0.067564
C      -0.001488   -0.086498    0.015469
O       0.970488   -0.798453   -0.752656
C       0.215866   -2.007051   -0.472490
C       0.453917   -2.243297    1.038248
C      -0.338484   -0.951648    1.234922
C      -1.068527   -1.149111   -0.115317
C      -2.425454   -1.157191   -0.489642
C      -3.584511   -1.169658   -0.819066
H       0.855886    1.841819    0.346723
H      -0.158888    1.724408   -1.106633
H      -0.910474    1.776340    0.500832
H       0.315949   -2.775246   -1.235213
H      -0.097509   -3.111224    1.407549
H       1.498662   -2.277659    1.361656
H      -0.763240   -0.541373    2.142139
H      -4.605022   -1.178709   -1.110993
