19

C      -0.092315    1.515479   -0.013717
C       0.074645   -0.004303    0.103064
C       0.712914   -0.603110   -1.141000
C       0.905658   -2.121810   -1.345004
C      -0.529814   -2.700073   -1.227883
C      -0.844914   -1.857815   -2.463375
C       0.581513   -1.808866   -2.858882
N      -0.083192   -0.552934   -2.421421
H       0.877688    2.012606   -0.125189
H      -0.696868    1.769156   -0.889371
H      -0.581011    1.931010    0.872629
H       0.703437   -0.249726    0.969823
H      -0.901989   -0.463953    0.286243
H       1.652644   -0.079933   -1.356826
H       1.760414   -2.660245   -0.938805
H      -0.545943   -3.762526   -1.485206
H      -1.086780   -2.540831   -0.299697
H      -1.729946   -1.863376   -3.085582
H       1.105494   -1.932903   -3.797291
