19

C      -0.076915    1.379293    0.004318
N       0.009241   -0.066563    0.000717
C      -1.266458   -0.775530    0.009695
C      -1.126079   -2.272161    0.006227
C      -2.388964   -3.078067    0.015694
C       0.093624   -2.811589   -0.004617
N       1.245880   -2.036584   -0.012899
C       1.252530   -0.650794   -0.010304
O       2.302543   -0.028625   -0.017544
H       0.933107    1.784852   -0.003309
H      -0.623305    1.737356   -0.878778
H      -0.608444    1.733886    0.897834
H      -1.850407   -0.453166    0.891676
H      -1.864362   -0.450321   -0.861823
H      -3.016817   -2.855927   -0.858050
H      -2.177039   -4.150744    0.011175
H      -3.000960   -2.860191    0.901688
H       0.257927   -3.883299   -0.007535
H       2.159562   -2.455226   -0.021107
