23

C       0.086532    1.592252    0.079118
C       0.008027    0.065881   -0.007758
C       0.751885   -0.506880   -1.223168
C       0.686713   -2.017135   -1.305134
C       1.508333   -2.863895   -0.281875
C       2.140270   -3.680516   -1.452843
C       1.273174   -2.892335   -2.457266
O      -0.008241   -3.509972   -2.694976
C      -0.648981   -2.683689   -1.696766
H       1.125786    1.930818    0.156299
H      -0.347715    2.062412   -0.810188
H      -0.452720    1.971015    0.952932
H       0.418774   -0.375415    0.909439
H      -1.044493   -0.244290   -0.048257
H       0.333099   -0.074403   -2.142676
H       1.803213   -0.188629   -1.186487
H       2.236787   -2.272232    0.279050
H       0.911997   -3.436230    0.433933
H       3.213161   -3.505149   -1.571865
H       1.953926   -4.756478   -1.459362
H       1.728677   -2.513597   -3.377598
H      -1.154097   -3.277605   -0.923964
H      -1.379251   -2.001280   -2.154462
