15

O       0.131896    1.426823    0.233996
C       0.000869    0.057710    0.025917
C      -1.408783   -0.628206    0.052517
C      -2.557785    0.176750   -0.599380
O      -1.989067    0.952152   -1.670274
C      -2.304012   -0.433387   -1.912795
C      -1.136485   -1.288487   -1.350548
C       0.217494   -0.535259   -1.404041
O       1.078740   -0.431394   -2.222863
H      -0.347434    1.859078   -0.484990
H       0.677646   -0.451214    0.724169
H      -1.675209   -1.225933    0.921468
H      -3.466117    0.558425   -0.148823
H      -2.952422   -0.642921   -2.754713
H      -1.174104   -2.360448   -1.534588
