21

C       0.463076    1.043599   -0.000770
C       0.066609   -0.399175    0.318909
C      -1.390614   -0.692416   -0.098970
O      -1.568931   -0.491747   -1.476462
C      -1.814320   -2.107806    0.276556
O      -2.121734   -2.894995   -0.596706
C      -1.795618   -2.528181    1.748281
O      -0.523826   -3.048498    2.089210
C      -0.293640   -4.367402    1.619964
H       1.512600    1.224164    0.250069
H       0.320351    1.252181   -1.063800
H      -0.144854    1.756010    0.568412
H       0.716383   -1.096586   -0.222673
H       0.197223   -0.609576    1.385217
H      -2.051430   -0.005511    0.461765
H      -1.829340   -1.357779   -1.829282
H      -1.964552   -1.668044    2.403230
H      -2.590935   -3.270213    1.907845
H      -1.037627   -5.066602    2.029063
H      -0.323255   -4.431634    0.525621
H       0.699869   -4.652184    1.972799
