19

C       0.400476    1.417421   -0.311484
C       0.005480   -0.015890    0.048765
O       0.326920   -0.904079   -1.031467
C       1.317897   -1.823544   -0.635667
C       2.661009   -1.568764   -1.327082
O       2.951482   -0.564481   -1.917346
C       1.466054   -1.630788    0.856344
C       0.732510   -0.590674    1.246317
C       0.583994   -0.023197    2.620545
H       1.474171    1.473151   -0.507785
H      -0.129719    1.729369   -1.215146
H       0.139541    2.110797    0.494959
H      -1.084659   -0.058544    0.202964
H       1.005493   -2.849218   -0.898685
H       3.382958   -2.412886   -1.212879
H       2.104315   -2.245471    1.478209
H       1.152907   -0.597909    3.355375
H       0.931518    1.016033    2.659484
H      -0.467867   -0.014013    2.932058
