15

O       0.269553    1.381278    0.248097
C       0.118085   -0.000372    0.037610
C      -1.345497   -0.497117    0.139705
C      -2.350890    0.655106    0.107684
O      -3.201619    0.782023   -0.732732
C      -1.478462   -1.433150   -1.038599
C      -0.432989   -1.390751   -1.875778
C       0.538325   -0.396300   -1.390417
O       1.473578    0.118941   -1.960565
H       0.982987    1.657531   -0.346437
H       0.748082   -0.576495    0.735527
H      -1.521897   -1.017168    1.091836
H      -2.246800    1.366353    0.950381
H      -2.366249   -2.038555   -1.178799
H      -0.320876   -1.931351   -2.806279
