17

C      -0.147305    1.615107    1.184891
C      -0.082931    0.399378    0.266207
O       0.625597   -0.679659    0.879967
C       1.954534   -0.759424    0.664482
N       2.638325   -1.636211    1.258585
C      -1.486139   -0.092444   -0.138870
C      -1.716562   -1.583955   -0.204155
O      -2.336583    0.720963   -0.413120
H       0.851191    2.030319    1.346623
H      -0.787482    2.375224    0.733956
H      -0.566149    1.331462    2.154327
H       0.419335    0.670712   -0.676394
H       2.323831   -0.016806   -0.057623
H       3.612341   -1.573969    0.970165
H      -0.978190   -2.059147   -0.858688
H      -1.573443   -2.029414    0.785028
H      -2.725986   -1.777008   -0.567942
