21

C       0.338799    1.207792   -0.085533
C       0.413494   -0.138243   -0.811108
N      -0.747162   -1.015535   -0.780229
C      -1.793789   -0.663920   -0.162683
N      -2.899827   -1.505603   -0.136154
C      -4.083996   -1.205131    0.511743
O      -4.246951   -0.164936    1.116138
C      -5.148271   -2.290513    0.394687
C      -6.439824   -1.924920    1.121592
H       1.286548    1.741114   -0.205375
H      -0.454634    1.845699   -0.489122
H       0.160962    1.083675    0.987923
H       0.654580    0.031508   -1.869377
H       1.259594   -0.717733   -0.417169
H      -1.965466    0.262040    0.386567
H      -2.799319   -2.381028   -0.629740
H      -5.336655   -2.473221   -0.671629
H      -4.728971   -3.226606    0.786875
H      -7.178194   -2.724412    1.016051
H      -6.254059   -1.760050    2.185479
H      -6.864787   -1.002441    0.719129
