23

C       0.017064    1.481943   -0.060651
C       0.094742   -0.041309    0.051787
C       0.716130   -0.538896    1.379305
C      -0.074233   -0.116690    2.538995
C      -0.742930    0.212435    3.485711
C      -1.539309    0.610978    4.638354
C       0.900036   -2.053358    1.367888
C       2.114101   -2.660663    0.712788
C       1.960275   -2.701149    2.214903
H       1.013932    1.934172   -0.004483
H      -0.430890    1.782957   -1.012708
H      -0.586158    1.904535    0.748126
H      -0.907995   -0.474486   -0.046692
H       0.695639   -0.448519   -0.769754
H       1.716609   -0.086845    1.464566
H      -1.579539   -0.185679    5.389733
H      -1.122418    1.500789    5.123469
H      -2.570494    0.845129    4.351014
H      -0.031984   -2.602498    1.263451
H       1.995608   -3.582261    0.153653
H       2.857703   -1.986179    0.299596
H       2.597949   -2.052590    2.806794
H       1.736425   -3.651298    2.686910
