21

C      -0.179648    1.571383    0.929381
C      -0.079127    0.094644    0.583388
C       0.942641   -0.402427   -0.475778
O       2.203248    0.114323    0.010807
C       2.136240   -0.219379    1.411692
C       0.754097   -0.896007    1.453948
O       0.241521   -1.318816    2.675505
C       0.881742   -1.810585    0.174059
C      -0.268243   -2.756988   -0.139290
H       0.795847    2.061731    0.888050
H      -0.839349    2.088148    0.224556
H      -0.596747    1.708039    1.932889
H      -1.068900   -0.325505    0.401888
H       0.856453   -0.214703   -1.544492
H       2.954519   -0.899896    1.684153
H       2.201650    0.681552    2.032211
H       0.902594   -1.862790    3.118085
H       1.834449   -2.346597    0.096845
H      -1.246329   -2.270561   -0.144912
H      -0.125323   -3.225413   -1.118774
H      -0.310015   -3.557135    0.607655
