18

C      -0.176999    1.551913   -0.015691
C       0.033621    0.052678    0.019064
C       1.342394   -0.647125   -0.229127
C       2.633914    0.134790   -0.074657
O       2.521541    0.856913    1.149104
C       1.689097    0.135379    2.045226
C       0.728781   -0.673437    1.171139
C       0.139215   -1.853572    1.728468
N      -0.339894   -2.799590    2.192476
H       0.686225    2.097626    0.366221
H      -0.360948    1.877186   -1.045196
H      -1.054463    1.828127    0.577810
H      -0.815992   -0.511522   -0.357186
H       1.354704   -1.545186   -0.835195
H       3.487591   -0.559746   -0.051776
H       2.807958    0.869569   -0.867432
H       2.270082   -0.551720    2.677966
H       1.189920    0.864722    2.690417
