16

C      -0.163218   -1.275446    0.571100
C      -0.104079   -0.105949    0.300507
C      -0.083641    1.301205   -0.031985
C       0.709363    2.220837    0.812233
O       1.189546    1.813709   -0.467274
C      -1.279757    1.797616   -0.798478
C      -1.184951    3.054446   -1.620861
C      -1.282804    1.712892   -2.303729
H      -0.202843   -2.309486    0.810332
H       0.393241    3.260210    0.884610
H       1.260072    1.826045    1.663496
H      -2.221336    1.597705   -0.296160
H      -2.044963    3.714160   -1.639334
H      -0.222608    3.551367   -1.657552
H      -0.384819    1.336397   -2.780516
H      -2.208140    1.442125   -2.798997
