16

C       0.090083    1.234075    0.600616
N      -0.039976    0.131271   -0.363348
C      -1.138547   -0.688463   -0.205403
C      -1.249475   -1.987766    0.073630
C      -0.255330   -3.058242    0.306701
O      -2.595755   -2.315548    0.134031
C      -3.319066   -1.176009   -0.110367
O      -4.506462   -1.106503   -0.130698
O      -2.445496   -0.157932   -0.323223
H       1.023049    1.766458    0.399373
H      -0.742155    1.949314    0.564187
H       0.144179    0.816752    1.609638
H       0.047371    0.469611   -1.315988
H       0.748330   -2.638028    0.222118
H      -0.375539   -3.498002    1.302729
H      -0.366052   -3.865374   -0.425626
