18

C      -0.371840    1.624406    0.173609
C      -0.130211    0.129695    0.108452
C      -1.369462   -0.658810   -0.324185
O      -1.710381   -0.343738   -1.655366
O       0.951711   -0.197092   -0.818207
C       1.733841   -0.825785    0.210183
C       0.655883   -0.538672    1.289431
C       1.053756    0.302187    2.402593
N       1.375594    0.974984    3.286057
H       0.557468    2.166044    0.362494
H      -0.795212    1.958116   -0.776784
H      -1.080816    1.863567    0.972707
H      -1.173145   -1.736765   -0.203585
H      -2.228965   -0.399631    0.303525
H      -0.912389   -0.498941   -2.177199
H       1.910265   -1.888692    0.014284
H       2.690856   -0.319204    0.368643
H       0.166042   -1.436404    1.674463
