23

C      -0.263485    1.505647    0.125496
C      -0.143297   -0.000282    0.290343
O      -1.257370   -0.603051   -0.352111
C      -1.373511   -1.991044   -0.177534
C      -0.366641   -2.812278   -0.955854
C      -1.876224   -2.482198    1.160055
C      -2.787318   -2.493676   -0.054030
C      -3.960683   -1.552807   -0.110525
O      -5.007231   -2.108560    0.680735
H       0.586251    2.009431    0.596038
H      -0.282815    1.775099   -0.934409
H      -1.184665    1.872207    0.587694
H       0.799095   -0.355531   -0.152933
H      -0.127023   -0.277243    1.355320
H       0.655593   -2.644370   -0.600606
H      -0.579203   -3.879927   -0.852690
H      -0.405221   -2.554076   -2.019358
H      -1.507382   -3.424474    1.550721
H      -2.091811   -1.733362    1.914897
H      -2.981705   -3.465465   -0.499854
H      -3.655705   -0.564378    0.256643
H      -4.284267   -1.428183   -1.156431
H      -5.769494   -1.526308    0.609320
