20

N      -0.171921    1.345108   -0.110008
C      -0.036800    0.088483   -0.055172
C      -1.228890   -0.826835    0.124349
C      -1.232904   -2.081646   -0.758153
C      -0.026856   -3.036971   -0.520433
C       0.709362   -2.319038   -1.685967
C      -0.676362   -1.817002   -2.186819
C       1.647089   -1.218087   -1.200587
O       1.203681   -0.518467   -0.028492
H       0.750092    1.783263   -0.180367
H      -1.256431   -1.131201    1.179881
H      -2.120920   -0.223841   -0.061214
H      -2.220350   -2.546309   -0.700767
H       0.448955   -3.012572    0.463062
H      -0.275800   -4.070176   -0.774805
H       1.268601   -2.950041   -2.383852
H      -1.103555   -2.497272   -2.927821
H      -0.741145   -0.794513   -2.572233
H       2.608994   -1.646983   -0.904815
H       1.831091   -0.492222   -2.006669
