17

O      -0.087341    1.438850    0.089560
C       0.018924    0.029653   -0.052609
C      -1.389253   -0.536862    0.035453
C      -1.455456   -2.079649   -0.055988
C      -2.632777   -2.461787    0.855990
C      -2.753561   -1.292157    1.842093
O      -3.403383   -1.256216    2.863314
N      -1.990381   -0.276702    1.331006
H       0.797933    1.812079    0.124850
H       0.463697   -0.248307   -1.021417
H       0.633916   -0.410011    0.747487
H      -1.983041   -0.074046   -0.767933
H      -1.568002   -2.422321   -1.086404
H      -0.524610   -2.504700    0.335846
H      -3.576598   -2.530471    0.302981
H      -2.501213   -3.403387    1.391409
H      -2.004678    0.647656    1.732363
