23

C       0.132766    1.569466   -0.197810
C       0.447917    0.071785   -0.194832
C       0.868246   -0.507455    1.149039
C       1.151908   -2.004031    1.171872
C      -0.069498   -2.856569    0.884337
C      -0.381361   -3.343950   -0.510317
C       0.089249   -4.315632    0.543212
C       1.480988    0.331249    2.191603
O       0.105981   -0.055242    2.283861
H       1.032713    2.178171   -0.065701
H      -0.321926    1.861886   -1.148571
H      -0.566577    1.813584    0.606269
H      -0.434962   -0.484751   -0.529567
H       1.237852   -0.151716   -0.923833
H       1.944246   -2.234549    0.447003
H       1.544195   -2.261331    2.162853
H      -0.925777   -2.604580    1.503942
H      -1.418208   -3.385716   -0.825755
H       0.311966   -3.088213   -1.305206
H       1.097636   -4.707649    0.454559
H      -0.625036   -5.022370    0.950872
H       2.144451   -0.127341    2.924579
H       1.653389    1.391604    2.020857
