16

C      -0.082357    1.328343    0.311921
O      -0.148797   -0.075086    0.421495
C      -1.200896   -0.617169   -0.352110
C      -1.242208   -2.064881   -0.204686
C      -1.300145   -3.261908   -0.089123
C      -1.357368   -4.693023    0.020910
C      -0.938539   -5.389661    1.254184
O      -2.315835   -5.255883    0.934020
H       0.750314    1.661084    0.935209
H       0.097910    1.650463   -0.726185
H      -1.007690    1.811109    0.664708
H      -2.169950   -0.188117   -0.041573
H      -1.071081   -0.356460   -1.417382
H      -1.276747   -5.240133   -0.917713
H      -0.528498   -6.396063    1.178243
H      -0.590902   -4.797698    2.098425
