16

N      -0.033062    1.403530    0.126580
C       0.005806    0.015382    0.043272
C      -1.175790   -0.689829   -0.033603
N      -2.420947   -0.029801   -0.092463
C      -1.194165   -2.129878   -0.113775
O      -2.211400   -2.815947   -0.205578
N       0.072712   -2.722975   -0.091890
C       1.248957   -2.040855    0.016410
C       1.250722   -0.685758    0.086077
H       0.817045    1.868608   -0.158610
H      -0.850407    1.796243   -0.326582
H      -2.590420    0.548791    0.725048
H      -3.149412   -0.736204   -0.156871
H       0.063391   -3.731362   -0.139910
H       2.150770   -2.638649    0.039717
H       2.184815   -0.144819    0.169192
