16

O       0.180923    0.629640    0.801796
C      -0.220572    0.226031   -0.494028
C      -1.555738   -0.496113   -0.483242
C      -1.772989   -1.707062   -1.358622
C      -1.602277   -1.871971    0.143377
O      -0.352516   -2.314031    0.622552
C      -2.732356   -2.266012    0.941657
C      -3.663216   -2.632043    1.610025
H       0.310210   -0.183025    1.305036
H      -0.303652    1.140066   -1.091571
H       0.538574   -0.410523   -0.968427
H      -2.417938    0.130080   -0.279442
H      -2.753141   -1.886189   -1.784416
H      -0.933963   -2.035895   -1.963377
H      -0.369194   -3.276320    0.667277
H      -4.485569   -2.938104    2.208238
