21

C       0.062054    1.453439    0.086391
C      -0.026606   -0.050049   -0.034831
C       0.613730   -0.692490   -1.289860
C       0.311321   -2.195530   -1.064360
C       1.242580   -2.755975    0.039638
C       0.314143   -2.052393    1.052234
O       0.601670   -0.650374    1.121747
C      -0.850087   -2.131056    0.008133
C      -1.416993   -0.719712   -0.024291
H       1.106676    1.778371    0.108363
H      -0.430218    1.936596   -0.763126
H      -0.418739    1.794068    1.008074
H       0.133449   -0.311411   -2.197860
H       1.685366   -0.483077   -1.357916
H       0.175158   -2.770605   -1.981165
H       1.169811   -3.844974    0.123738
H       2.293812   -2.454340    0.035501
H       0.213450   -2.440108    2.068314
H      -1.522353   -2.984365    0.073265
H      -1.992607   -0.455776    0.867663
H      -2.006438   -0.501583   -0.919673
