19

C      -0.059899    1.575422   -0.028182
C      -0.084651    0.046158   -0.073851
C       0.787088   -0.525869   -1.209048
C       0.766256   -2.021624   -1.277273
N       1.756193   -2.734284   -0.791083
O       1.425912   -4.060162   -1.004986
C       0.220958   -4.117018   -1.613326
C      -0.259182   -2.862004   -1.822398
N      -1.407499   -2.427425   -2.499369
H       0.959058    1.947609    0.123646
H      -0.433284    2.007841   -0.963209
H      -0.679880    1.958347    0.788080
H       0.267570   -0.365015    0.879020
H      -1.120800   -0.300954   -0.186726
H       0.448250   -0.120041   -2.171048
H       1.823049   -0.201889   -1.068924
H      -0.150269   -5.103423   -1.841768
H      -2.076892   -3.169686   -2.655697
H      -1.871101   -1.658819   -2.031491
