18

O       0.020934   -0.115032   -0.229510
C      -0.033311    1.093717   -0.083036
N      -1.267155    1.704916    0.101836
C      -1.711230    3.024216   -0.146036
C      -1.298835    4.199645    0.334705
C      -0.259474    4.564991    1.355204
C       0.617571    3.409370    1.864768
C       1.509250    2.881736    0.775180
C       1.199752    1.920385   -0.094318
H      -1.991919    1.004274    0.006641
H      -2.555955    3.039818   -0.832210
H      -1.844834    5.053341   -0.061528
H       0.383510    5.354535    0.941588
H      -0.773730    5.032153    2.207782
H       1.232661    3.773475    2.694255
H      -0.022120    2.617095    2.262851
H       2.489028    3.348544    0.690543
H       1.931678    1.575454   -0.817672
