20

C      -0.076558    1.484007    0.065477
C      -0.002984   -0.029434    0.029210
C       1.032899   -0.635748   -0.959998
C       1.719003   -1.236568    0.260169
N       0.745961   -0.565927    1.234437
C       0.782655   -2.016920    1.078162
C      -0.327396   -3.000777    0.709778
O       0.089789   -3.885333    1.771601
C       1.102269   -2.960234    2.230982
H       0.923853    1.916229    0.169803
H      -0.526720    1.870144   -0.855411
H      -0.679235    1.820450    0.914594
H      -1.011682   -0.452978   -0.043889
H       0.674784   -1.339878   -1.717605
H       1.629438    0.135542   -1.452338
H       2.789416   -1.249702    0.445667
H      -1.350623   -2.631319    0.862194
H      -0.258388   -3.476769   -0.276444
H       2.101280   -3.412824    2.235404
H       0.876956   -2.553341    3.224265
