17

C      -0.461144    1.310843   -0.221942
N       0.032041   -0.048099   -0.056771
C       1.418427   -0.413814   -0.310846
C       2.487382    0.660036   -0.376482
C       2.444390    1.382490    0.980458
O       3.026322    2.399648    1.249737
C       1.532196    0.594468    1.935443
C       0.842554   -0.453359    1.083048
H      -0.708252    1.465475   -1.276834
H      -1.383414    1.419068    0.357262
H       0.221554    2.117214    0.083032
H       1.556904   -1.312980   -0.904976
H       3.479459    0.208225   -0.500631
H       2.368540    1.383739   -1.189057
H       2.156638    0.117424    2.701122
H       0.860356    1.280203    2.461322
H       0.539613   -1.382835    1.557353
