14

N       0.014745    1.390529    0.191362
C       0.012647    0.000025    0.075265
N      -1.028460   -0.798668    0.083431
N      -0.597227   -2.127684    0.057055
C       0.705371   -2.043427    0.013464
N       1.811151   -2.856657   -0.036137
C       2.943045   -2.047076   -0.040461
C       2.565226   -0.744248    0.005694
N       1.167944   -0.747286    0.034223
H       0.380196    1.851708   -0.637012
H      -0.938787    1.703131    0.338324
H       1.790817   -3.858453   -0.085536
H       3.933051   -2.470002   -0.071202
H       3.152494    0.155603    0.035683
