15

C      -0.088996    1.518363   -0.006890
C       0.034025    0.026225    0.083483
O      -1.247171   -0.680943    0.067018
C      -0.911274   -1.433587    1.175899
O      -1.580453   -2.237712    1.734157
C       0.475229   -0.785988    1.324378
C       1.583498   -1.440487    0.451501
O       0.943644   -2.097841   -0.639832
C       1.152288   -0.692446   -0.743456
H       0.894732    1.988345    0.092070
H      -0.507609    1.806811   -0.976880
H      -0.742534    1.904919    0.779551
H       0.755739   -0.335421    2.273523
H       2.555236   -1.800192    0.764683
H       1.694484   -0.323008   -1.606564
