13

C       0.038374    1.335611    0.008891
O      -0.036720   -0.097764    0.002232
C      -1.275779   -0.602121    0.009263
O      -2.293131    0.050244    0.020301
C      -1.274382   -2.073837    0.001502
C      -2.361323   -2.900569    0.005618
O      -1.968541   -4.153086   -0.003486
N      -0.490009   -4.098837   -0.015481
N      -0.167942   -2.898084   -0.011546
H       1.101563    1.572455    0.001896
H      -0.454617    1.748871   -0.874265
H      -0.440926    1.739890    0.903664
H      -3.418505   -2.688997    0.015087
