19

N      -0.059548    1.328917   -0.203742
C       0.063211    0.011901    0.142910
O       1.128162   -0.474193    0.470541
C      -1.238977   -0.786319    0.089444
C      -0.998818   -2.292460   -0.024909
C      -2.292509   -3.105929    0.053741
C      -2.051970   -4.605554   -0.057356
O      -3.310349   -5.259309    0.023253
H       0.740960    1.927129   -0.079990
H      -0.953003    1.752727   -0.381976
H      -1.795961   -0.565801    1.011208
H      -1.864950   -0.424947   -0.736060
H      -0.480913   -2.501966   -0.969132
H      -0.305205   -2.590939    0.767759
H      -2.809218   -2.907833    1.001425
H      -2.983938   -2.807407   -0.744518
H      -1.546217   -4.830935   -1.010811
H      -1.378877   -4.933738    0.751526
H      -3.160425   -6.207017   -0.037872
