14

O       0.662611    0.436823    0.786048
C      -0.052350    0.118637   -0.386765
C      -1.384789   -0.521975   -0.138523
C      -2.087862   -0.665063    1.026336
O      -3.271536   -1.309107    0.711365
C      -3.199920   -1.506243   -0.615778
N      -2.121068   -1.066019   -1.178803
C      -1.867772   -0.293231    2.361565
C      -1.699102    0.040355    3.507175
H       0.123405    1.022775    1.327540
H      -0.199349    0.997349   -1.036957
H       0.572160   -0.580136   -0.954124
H      -4.035950   -2.008423   -1.077775
H      -1.536451    0.318079    4.519449
