21

C       0.695949    1.292982    0.266062
C      -0.012041   -0.035827    0.027948
O      -1.410729    0.155576   -0.103194
C       0.639720   -0.939345   -1.071718
C       1.120532   -1.927903    0.032210
C       2.636215   -1.944768    0.279971
C       2.984489   -2.837060    1.448539
O       3.479929   -2.463527    2.480900
C       0.278488   -1.138737    1.080070
H       1.770909    1.158419    0.419797
H       0.569408    1.959668   -0.597086
H       0.280963    1.788755    1.149215
H      -1.558511    0.850421   -0.754306
H      -0.119459   -1.370667   -1.727808
H       1.422650   -0.478713   -1.682232
H       0.775773   -2.954653   -0.122659
H       3.140110   -2.338810   -0.614121
H       3.023593   -0.941401    0.481805
H       2.720589   -3.911172    1.297843
H       0.805809   -0.817886    1.982519
H      -0.641040   -1.650888    1.368852
