17

C      -0.060654    1.474850    0.110710
C       1.411363    1.865137    0.025414
C       2.166737    0.923651   -0.547411
C       1.323725   -0.248665   -1.004164
C       1.630326   -1.711113   -0.695201
O       1.758975   -2.062111    0.678020
C       0.468169   -2.251547    0.040769
C      -0.453329   -1.107210    0.326359
C       0.044464    0.007856   -0.211630
H      -0.506332    1.670093    1.091889
H      -0.654956    2.037101   -0.625896
H       1.772747    2.823596    0.381412
H       3.231810    1.001666   -0.731506
H       1.157161   -0.180088   -2.092486
H       2.215161   -2.309621   -1.388686
H       0.140531   -3.284729   -0.021592
H      -1.289561   -1.172729    1.012021
