21

C       0.041748    1.511304   -0.020166
C       0.044177    0.056226    0.029262
C       0.044621   -1.146453    0.079036
C       0.032758   -2.603816    0.123748
C      -1.372206   -3.216001    0.006928
C      -1.379847   -4.751406   -0.041462
C      -2.725834   -5.088778    0.612875
C      -2.828446   -3.991634    1.678559
O      -2.154426   -2.852766    1.147282
H       0.356856    1.880856   -1.002562
H      -0.957810    1.913613    0.179226
H       0.722430    1.936633    0.725934
H       0.649598   -3.005020   -0.692319
H       0.481088   -2.958801    1.060799
H      -1.856176   -2.806278   -0.892651
H      -1.276166   -5.138264   -1.058042
H      -0.552205   -5.150493    0.557766
H      -3.538738   -4.992146   -0.114708
H      -2.767386   -6.096041    1.034481
H      -3.861557   -3.712148    1.912629
H      -2.344698   -4.306686    2.615913
