16

C       0.000274    1.534589    0.077052
C       0.033933    0.039198    0.043747
C       0.006583   -0.747459   -1.098108
N       0.054840   -2.080719   -0.682896
C       0.110449   -2.124259    0.670713
O       0.162923   -3.340677    1.261184
C       0.099981   -0.837306    1.165505
C      -0.056636   -0.398177   -2.456716
C      -0.110951   -0.108711   -3.627630
H       0.895497    1.946794    0.557398
H      -0.056359    1.942407   -0.935278
H      -0.864776    1.905202    0.639453
H       0.049084   -2.882984   -1.288510
H       0.198441   -3.214592    2.214261
H       0.135257   -0.554525    2.206765
H      -0.158770    0.154398   -4.654629
