24

C      -0.082491    1.402729    0.137038
C       0.020258   -0.121644    0.036904
C       0.721932   -0.587095   -1.242942
C       0.826533   -2.114126   -1.395450
C       1.406180   -2.510131   -2.765054
C       1.419559   -4.017619   -3.027246
N       1.608021   -2.699631   -0.306735
C       1.117856   -3.599656    0.587110
O      -0.015664   -4.031479    0.606537
H       0.909068    1.869723    0.132527
H      -0.646091    1.820287   -0.704836
H      -0.588213    1.706948    1.058578
H       0.557592   -0.511718    0.909029
H      -0.983090   -0.563722    0.078573
H       0.183871   -0.195745   -2.115849
H       1.730833   -0.149974   -1.292114
H      -0.170120   -2.554444   -1.288213
H       0.815476   -2.006051   -3.539318
H       2.424909   -2.105460   -2.852089
H       0.408809   -4.435541   -2.979002
H       1.828933   -4.237971   -4.017744
H       2.029120   -4.545070   -2.287664
H       2.573897   -2.423262   -0.211980
H       1.891054   -3.906027    1.320899
