17

O      -0.114552   -0.006163    0.081831
C      -0.072681    1.184404    0.005523
C      -1.064737    2.360659    0.091173
C       0.083669    3.033328    0.971583
C       0.993978    2.290960   -0.057829
O       2.343468    2.063690   -0.443065
C       1.908448    2.217151   -1.845954
C       0.664574    3.008215   -1.353254
C      -0.885707    2.880649   -1.382658
H      -2.067630    2.241058    0.492310
H       0.157750    4.121743    0.959415
H       0.071128    2.644913    1.991299
H       2.651079    2.758464   -2.435266
H       1.698495    1.237168   -2.288794
H       0.958910    4.058067   -1.273058
H      -1.282151    2.152469   -2.096513
H      -1.374181    3.839493   -1.569460
