15

O       0.102303    1.403668    0.186666
C       0.060251    0.014548   -0.046284
C      -1.379231   -0.504149   -0.001519
O      -1.838367   -0.263003    1.315487
C      -3.048077   -0.762625    1.673571
N      -3.497997   -0.511321    2.821835
C      -2.233554    0.203108   -1.051848
O      -3.294347    0.717237   -0.826486
H      -0.335961    1.560211    1.032113
H       0.483122   -0.158711   -1.041233
H       0.658925   -0.551376    0.681452
H      -1.385155   -1.582331   -0.238564
H      -3.515284   -1.380143    0.898727
H      -4.398353   -0.967311    2.952263
H      -1.791116    0.182313   -2.072774
