19

C       0.285614    1.379715    0.263539
C      -0.096422   -0.074449   -0.019555
O      -1.507092   -0.244315   -0.130164
C       0.500067   -0.566160   -1.319035
C       0.028468   -0.015554   -2.666123
C       0.328001   -1.148898   -3.625292
C       0.828795   -2.220613   -3.005225
C       0.982825   -1.940166   -1.547772
O       1.901349   -0.848880   -1.266991
H       1.373857    1.484687    0.297887
H      -0.109562    2.042614   -0.512293
H      -0.115591    1.704974    1.230429
H       0.307839   -0.708651    0.784663
H      -1.917668    0.199874    0.618143
H      -1.040653    0.222655   -2.629169
H       0.561503    0.903030   -2.938927
H       0.168606   -1.059215   -4.694096
H       1.116122   -3.155566   -3.469412
H       0.959542   -2.719863   -0.792296
