19

O       0.136924    1.225105   -0.399708
C       0.013543   -0.168507   -0.204363
C      -1.439418   -0.574219   -0.013615
O      -2.123921   -0.180448   -1.191743
C      -3.527060   -0.355840   -1.104968
C      -4.168047    0.094440   -2.331282
C      -4.730608    0.467444   -3.328554
C      -5.370361    0.884362   -4.575229
O      -5.593949   -0.181374   -5.486507
H      -0.497886    1.449158   -1.090630
H       0.434301   -0.735193   -1.050304
H       0.588641   -0.424773    0.691416
H      -1.528215   -1.660965    0.149449
H      -1.862146   -0.057637    0.863028
H      -3.767626   -1.417657   -0.926869
H      -3.929954    0.206087   -0.245159
H      -6.358155    1.309359   -4.365138
H      -4.771936    1.688209   -5.033276
H      -4.754708   -0.637661   -5.608120
