19

C       0.046377    1.613452   -0.037255
C       0.064543    0.092729   -0.007115
C       1.115328   -0.657240   -0.876166
O       2.390064   -0.101902   -0.455469
C       2.200934   -0.768574    0.789227
C       0.687495   -0.660321    1.177825
C       0.208928   -0.750861    2.595608
C       1.205016   -1.759723    0.277770
O       1.012755   -3.110669    0.365689
H       1.057579    2.009667    0.082884
H      -0.355952    1.983507   -0.987019
H      -0.581033    2.015688    0.765638
H      -0.927548   -0.327538   -0.209682
H       1.026278   -0.774056   -1.954922
H       3.012309   -0.810609    1.504310
H       0.252498    0.223842    3.094216
H      -0.826040   -1.107439    2.644008
H       0.821839   -1.449396    3.175412
H       1.761922   -3.556343   -0.047532
