20

C      -0.390423    1.307206    0.019404
N      -0.266404   -0.140814   -0.093337
C       1.129525   -0.546653   -0.237165
C      -0.923223   -0.844788    1.006144
C      -1.227581   -2.296875    0.666399
N      -1.174462   -3.197002    1.557250
N      -1.601968   -2.447169   -0.682916
C      -2.005463   -3.597837   -1.304112
O      -2.145596   -4.678284   -0.773668
H       0.051315    1.781884   -0.862136
H      -1.446547    1.588596    0.065870
H       0.114591    1.715442    0.913110
H       1.744166   -0.261040    0.634908
H       1.194451   -1.632042   -0.352786
H       1.560077   -0.079830   -1.127960
H      -0.349807   -0.836920    1.945257
H      -1.879026   -0.343326    1.202728
H      -1.466519   -4.097088    1.173701
H      -1.460799   -1.609835   -1.238059
H      -2.201962   -3.430458   -2.380888
