18

N       0.125685   -1.189369   -0.395526
C       0.077084   -0.060723   -0.151870
C       0.048686    1.377373    0.100832
C      -0.463833    2.273335   -1.073913
C       0.832562    3.125857   -0.991903
C       1.413305    2.164479    0.086505
C       1.527790    2.697677    1.515059
C       0.063990    2.736531    1.974220
O      -0.564768    1.611804    1.354896
H      -0.582046    1.727088   -2.011146
H      -1.402612    2.777741   -0.836777
H       1.411163    3.170598   -1.915785
H       0.680159    4.148066   -0.635309
H       2.282088    1.591775   -0.236064
H       2.100286    2.001108    2.134838
H       2.008767    3.678527    1.564737
H      -0.067257    2.630058    3.053351
H      -0.425929    3.669754    1.658798
