21

C      -0.356010    1.424778   -0.014918
C       0.024635   -0.052036   -0.009264
O       0.797996   -0.289941   -1.195303
C       0.658351   -1.575698   -1.739678
C       0.958601   -2.735251   -0.835037
C       1.287911   -2.745316    0.464501
C       1.372161   -1.633781    1.420114
C       2.135690   -1.935155    2.687996
C       0.795105   -0.437877    1.227960
H       0.545416    2.045438   -0.005230
H      -0.931537    1.668136   -0.911132
H      -0.955636    1.670860    0.866862
H      -0.892778   -0.661500   -0.068183
H      -0.350730   -1.721436   -2.172073
H       1.353917   -1.605670   -2.590180
H       0.922135   -3.693907   -1.351858
H       1.521447   -3.719032    0.893591
H       1.710788   -2.804953    3.204859
H       3.182562   -2.180582    2.470992
H       2.121506   -1.088312    3.378124
H       0.899997    0.325898    1.995325
