18

O       0.018368    1.212811    0.465141
C      -0.021142   -0.014683   -0.236753
C      -1.411711   -0.606606   -0.217403
C      -1.598541   -2.065451   -0.054784
N      -1.786086   -1.112514    1.120089
C      -3.270612   -1.386674    1.067387
C      -3.071479   -2.396939   -0.066338
C      -3.940164   -2.927632   -1.116854
O      -3.553701   -3.720615    0.019582
H      -0.320115    1.021171    1.348109
H       0.287060    0.200853   -1.265034
H       0.689433   -0.744046    0.182040
H      -2.162816   -0.037710   -0.765641
H      -0.789508   -2.787659   -0.095394
H      -3.599568   -1.870678    1.989518
H      -3.879660   -0.497856    0.873364
H      -4.990918   -2.642652   -1.147329
H      -3.513116   -3.238224   -2.069405
