19

C       0.210746    1.510299   -0.111182
C      -0.081485    0.000274   -0.019546
C       0.394266   -0.807941   -1.245547
C       1.761564   -1.383317   -0.867637
O       2.829964   -0.399834   -0.922180
C       3.137783   -0.598547    0.473337
C       1.856466   -1.441896    0.670687
C       0.673043   -0.615148    1.175439
O       0.384812   -0.456417    2.334178
H       1.260628    1.688855   -0.358514
H      -0.400333    1.965268   -0.896869
H      -0.022458    2.004398    0.836102
H      -1.151926   -0.132772    0.164977
H      -0.290292   -1.639521   -1.450044
H       0.463191   -0.206630   -2.156851
H       2.028939   -2.284124   -1.430386
H       4.063482   -1.171885    0.609152
H       3.211206    0.342810    1.028546
H       1.954305   -2.389275    1.199647
