16

C       0.030304    1.492262    0.082735
C       0.002782    0.005846   -0.053049
C      -0.096033   -0.803442   -1.161241
C      -0.075105   -2.157481   -0.717104
C       0.036110   -2.150236    0.654165
C       0.103888   -3.266121    1.643526
N       0.082214   -0.828087    1.041810
H       0.958242    1.852223    0.545994
H      -0.044434    1.955391   -0.903894
H      -0.802847    1.871801    0.688589
H      -0.174805   -0.456831   -2.180936
H      -0.134849   -3.042644   -1.332764
H       1.037207   -3.255726    2.221501
H      -0.723888   -3.236322    2.364046
H       0.051223   -4.225429    1.123462
H       0.162875   -0.514507    1.994020
