18

N      -0.448597   -1.110080   -0.483470
C      -0.199570   -0.011194   -0.226276
C       0.101295    1.386341    0.110680
C      -0.086601    1.766791    1.600565
C       1.457073    1.874968    1.621811
O       1.511630    1.649859    0.177457
C       2.081925    3.167949    2.032403
C       2.580851    3.329747    3.451331
C       3.562814    3.229121    2.316616
H      -0.399188    2.034645   -0.617385
H      -0.601125    2.718706    1.738473
H      -0.535224    1.007106    2.239182
H       1.939294    1.039428    2.147109
H       1.639131    4.044269    1.566615
H       2.436037    4.290713    3.931080
H       2.489356    2.481542    4.121985
H       4.133795    2.312247    2.216335
H       4.098262    4.121476    2.014105
