17

O      -0.133983    0.918877    0.754088
C       0.011168    0.102191   -0.404321
C      -1.339220   -0.535548   -0.680124
N      -2.325917    0.508633   -0.941576
C      -3.699610    0.062766   -1.026364
C      -4.071531   -0.373193   -2.437685
F      -3.305337   -1.392472   -2.868808
F      -5.348158   -0.794192   -2.469729
F      -3.949220    0.619759   -3.322787
H       0.644989    1.475961    0.834386
H       0.313514    0.701971   -1.274422
H       0.763988   -0.684208   -0.246022
H      -1.253989   -1.191024   -1.551519
H      -1.616811   -1.169286    0.182563
H      -2.230441    1.212249   -0.219607
H      -3.945404   -0.780641   -0.358170
H      -4.371518    0.889052   -0.777657
