15

C       0.015880    1.471094    0.116114
O       1.321728    2.075789    0.067985
C       2.144408    1.473534   -0.828119
C       2.015540    0.142925   -1.192739
N       3.062500   -0.103666   -2.026454
N       3.843770    0.973357   -2.219952
C       3.296240    1.943913   -1.477615
C       0.991978   -0.688119   -0.611731
C       0.040137   -0.042381    0.080000
H      -0.437945    1.838083    1.039674
H      -0.582858    1.858538   -0.728115
H       3.272279   -0.950341   -2.526956
H       3.747120    2.923304   -1.444232
H       1.027900   -1.769801   -0.683000
H      -0.752231   -0.572640    0.596259
