13

C      -0.037684    1.303648    0.010168
C       1.241633    1.839383    0.000297
C       1.906564    3.087311    0.000607
C       3.273038    3.080079   -0.012929
N       4.030660    1.934216   -0.026698
C       3.413034    0.797115   -0.026876
N       2.048450    0.712465   -0.013873
N       1.304804   -0.427040   -0.012585
N       0.055773   -0.046450    0.000837
H      -0.989338    1.808180    0.022439
H       1.342031    4.011072    0.011345
H       3.837256    4.006126   -0.013314
H       3.943520   -0.148804   -0.037233
