16

O      -0.058620    1.424101   -0.182112
C       0.067009    0.031836    0.073158
C      -1.325640   -0.565620   -0.001045
C      -2.055522   -0.682141   -1.365983
N      -2.336259   -2.151926   -1.160786
C      -1.013384   -2.792115   -1.094327
C      -1.495359   -2.080050    0.107450
H       0.820177    1.814202   -0.173700
H       0.729495   -0.447891   -0.663893
H       0.496613   -0.158324    1.070989
H      -1.960137   -0.047735    0.723216
H      -2.989243   -0.121358   -1.423568
H      -1.458089   -0.472781   -2.260067
H      -1.067757   -3.876627   -1.080708
H      -0.199920   -2.389833   -1.694664
H      -1.786909   -2.612069    1.007973
