19

C       0.079292    1.500464    0.072608
C       0.004659    0.001818    0.038135
C      -0.966030   -0.810776    0.854873
C       0.524757   -1.006082    1.044508
C       1.235020   -1.793090   -0.084948
O       2.493018   -2.337446    0.094935
C       0.399362   -2.256310   -1.224178
O      -0.878298   -2.838814   -1.206473
C       0.672171   -0.781717   -1.133457
H       1.095978    1.858895   -0.130230
H      -0.582943    1.948696   -0.678850
H      -0.222261    1.884679    1.052533
H      -1.429838   -0.250915    1.664278
H      -1.585650   -1.574564    0.409416
H       1.020081   -0.815960    1.990082
H       3.068254   -1.657295    0.464180
H       1.053916   -2.694040   -1.983598
H      -0.786278   -3.726269   -0.842093
H       1.160007   -0.260906   -1.949653
