20

C       0.064091    1.352113   -0.222166
O       0.005088   -0.011206    0.182514
C      -1.246217   -0.536929    0.128166
C      -1.704305   -1.963820    0.023682
C      -2.574245   -1.828294    1.269143
C      -2.596491   -0.298076    0.960803
N      -3.292944   -0.105332   -0.341133
C      -4.659875   -0.583768   -0.495073
C      -2.208004   -0.842496   -0.971753
H       1.110765    1.655521   -0.156416
H      -0.292036    1.473854   -1.252787
H      -0.540450    1.989036    0.436525
H      -1.140639   -2.816217   -0.333227
H      -3.530142   -2.358327    1.327749
H      -1.992605   -2.022089    2.174035
H      -2.803384    0.434257    1.740293
H      -5.312944   -0.028956    0.187014
H      -4.992875   -0.376525   -1.517844
H      -4.797499   -1.660453   -0.310049
H      -2.068796   -0.918748   -2.043167
