19

C       0.172771    1.540936    0.009079
O       1.258030    0.611084   -0.006703
C      -0.071537    0.087993    0.003507
C      -0.503304   -0.620599    1.289788
C      -1.797726   -1.394805    1.023341
C      -2.723010   -0.663540    0.025473
C      -1.817620   -1.383703   -0.998381
C      -0.528604   -0.606484   -1.281730
O      -1.508989   -2.393284    0.004029
H       0.056924    2.108209    0.932568
H       0.038838    2.118300   -0.905670
H       0.268255   -1.337798    1.590264
H      -0.624985    0.098748    2.106837
H      -2.227174   -1.836668    1.925837
H      -3.733465   -1.073919    0.033161
H      -2.751415    0.427966    0.031746
H      -2.264794   -1.815676   -1.897047
H      -0.666247    0.121773   -2.088284
H       0.236811   -1.320269   -1.605175
