19

O       0.190591    1.397144   -0.126711
C       0.036068    0.010334   -0.050065
C       0.065074   -0.759567    1.304892
C      -1.364721   -0.208269    1.584838
C      -1.382185   -0.644274    0.079667
C      -2.515420   -0.530845   -0.919719
C      -3.793060   -1.167799   -0.420243
O      -4.362883   -2.082964   -0.955950
C      -0.623771   -1.924862    0.540671
H      -0.235840    1.811400    0.630251
H       0.663403   -0.405072   -0.843701
H       0.892540   -0.834387    2.010458
H      -1.981129   -0.794913    2.270888
H      -1.476764    0.857657    1.809953
H      -2.712769    0.536719   -1.097221
H      -2.241592   -0.992852   -1.873246
H      -4.188054   -0.722843    0.522995
H      -0.029077   -2.443485   -0.216686
H      -1.192930   -2.626642    1.153808
