18

C       0.001951    1.598181    0.174888
C      -0.021298    0.088254   -0.124609
C      -1.391472   -0.512975   -0.069236
C      -2.109598   -1.087146   -1.029662
C      -3.425827   -1.572141   -0.502939
O      -3.460875   -1.134646    0.860748
C      -2.208638   -0.575703    1.216628
C      -1.531158   -1.400141    2.246072
N      -0.977918   -2.029581    3.041716
H       1.022154    1.985151    0.101562
H      -0.623829    2.149279   -0.533649
H      -0.359987    1.815578    1.184707
H       0.405294   -0.097904   -1.115515
H       0.625129   -0.428381    0.597193
H      -1.803101   -1.214974   -2.060452
H      -4.288621   -1.142115   -1.029904
H      -3.520674   -2.667720   -0.552170
H      -2.374325    0.417817    1.657952
