18

O       0.091759    0.088727   -0.554103
C       0.077198    1.246090   -0.193782
N       1.092136    1.874565    0.477717
C       2.550949    1.631619    0.262179
C       2.568868    2.662288   -0.923266
C       3.897264    3.409362   -0.921240
C       4.108258    3.579764    0.614350
C       2.853287    2.892467    1.137650
C       1.647110    3.239881    0.205666
H      -0.816083    1.898826   -0.287893
H       2.985797    0.635393    0.312677
H       2.112533    2.367726   -1.868576
H       4.694542    2.829243   -1.395101
H       3.832284    4.366837   -1.446790
H       5.020035    3.091563    0.970742
H       4.158782    4.629274    0.919181
H       2.671736    2.829827    2.209925
H       1.022445    4.133920    0.198866
