22

C       0.471741    1.638080   -0.176548
C       0.277476    0.137480   -0.251342
C       0.706747   -0.697771   -1.421917
C       1.373493   -0.127048   -2.645938
C       2.106424   -1.115085   -3.588867
O       1.307611   -0.705390   -4.716548
C       0.471394    0.118025   -3.881094
N       1.365916   -0.832547   -0.118591
C       2.739349   -0.392486    0.075127
H       0.597462    1.957029    0.864087
H       1.334112    1.998731   -0.739747
H      -0.415478    2.146313   -0.569267
H      -0.625892   -0.187802    0.266153
H       0.085420   -1.563146   -1.663238
H       1.987470    0.742684   -2.414587
H       3.175538   -0.938282   -3.754600
H       1.954121   -2.174609   -3.340514
H      -0.544890   -0.290033   -3.787565
H       0.406975    1.149351   -4.247012
H       3.033764    0.526783   -0.450725
H       2.905765   -0.230873    1.145154
H       3.412666   -1.193366   -0.247884
