14

C       0.165026    1.386696   -0.242375
N       0.032954   -0.021363    0.082641
C       0.334656   -0.519707    1.312453
O       0.739764    0.158849    2.240269
C       0.148473   -2.028312    1.466353
C       1.420394   -2.672166    1.999355
O       1.855616   -3.720089    1.600910
H       0.499692    1.897761    0.660774
H       0.902517    1.544220   -1.036916
H      -0.792816    1.810627   -0.562174
H      -0.280565   -0.656454   -0.631931
H      -0.624894   -2.169023    2.233206
H      -0.165227   -2.546660    0.557072
H       1.915188   -2.087060    2.800596
