18

C       0.031082    1.459965   -0.017501
C       0.115076   -0.055838   -0.008831
O       0.726803   -0.477941   -1.217532
C       0.858562   -1.870883   -1.315687
C       1.459535   -2.177052   -2.692977
C       1.869839   -3.651146   -2.843813
O       1.929969   -4.413577   -1.919652
C       0.576147   -1.797059   -3.795662
N      -0.119628   -1.548290   -4.683838
H       1.029644    1.900224   -0.087847
H      -0.558216    1.805542   -0.871175
H      -0.442632    1.817980    0.901122
H       0.703628   -0.410687    0.853148
H      -0.888838   -0.502186    0.077240
H       1.528188   -2.277122   -0.544375
H      -0.112195   -2.379432   -1.211219
H       2.383779   -1.588032   -2.798569
H       2.125722   -3.953303   -3.879931
