20

C       0.056680    1.512479   -0.132060
C       1.591110    1.513826    0.137702
C       1.448206    0.079857    0.678239
C       0.020943   -0.024186    0.115959
C       2.419780   -1.052976    0.759176
C       3.808492   -0.544731    1.168709
C       3.187278    0.062478    2.470332
C       1.808646   -0.447798    2.035662
H      -0.498754    2.068854    0.626843
H      -0.266995    1.855476   -1.117013
H       2.183782    1.565664   -0.781488
H       1.964115    2.272634    0.831036
H      -0.753031   -0.397255    0.792927
H      -0.028444   -0.601236   -0.813382
H       2.211759   -2.006026    0.284475
H       4.514928   -1.348950    1.385606
H       4.284705    0.156255    0.474660
H       3.559487   -0.430772    3.371042
H       3.281201    1.145314    2.606771
H       1.052434   -0.859683    2.695560
