18

C      -0.232774    1.479151    0.034634
C       0.063608   -0.021416    0.000938
C       0.849173   -0.396355   -1.246602
O       1.193549   -1.795430   -1.240915
C       1.702266   -2.282928   -0.092663
N       2.220352   -3.438171    0.003268
C       1.562691   -1.419779    1.132699
N       2.337146   -1.826840    2.180948
N       0.784458   -0.405587    1.210243
H       0.697912    2.055795    0.040047
H      -0.830735    1.786822   -0.829595
H      -0.782529    1.724404    0.946284
H      -0.896556   -0.561632   -0.022100
H       0.275900   -0.245182   -2.163970
H       1.772048    0.196698   -1.304291
H       2.213972   -3.914007   -0.900668
H       2.666909   -2.779127    2.131151
H       2.089709   -1.456054    3.084490
