11

N      -0.012678    1.414134   -0.161814
C      -0.005278    0.152318   -0.108888
O      -1.119575   -0.611991   -0.174569
C      -2.358189   -0.024706    0.065710
O      -3.353303   -0.638062   -0.126630
C       1.227857   -0.728497    0.015384
O       1.202809   -1.923412    0.101082
C       2.497062    0.026339    0.026902
N       3.496685    0.607449    0.040632
H       0.925812    1.808041   -0.092868
H      -2.266477    0.999367    0.446853
