17

C      -0.664734    0.480463    0.186322
O       0.637805    0.025293   -0.160714
C       0.659591   -0.916458   -1.196749
C       1.561303   -2.111376   -0.988584
C       0.069635   -2.289774   -0.972706
C       0.621973   -0.367214   -2.604024
N       0.755895    0.989053   -2.675372
O       0.491538   -1.085984   -3.578317
H      -1.160301    0.975700   -0.658605
H      -1.299430   -0.345122    0.531444
H      -0.538226    1.197903    1.000340
H       2.111117   -2.467094   -1.851478
H       2.084973   -2.139859   -0.040248
H      -0.404235   -2.465615   -0.013938
H      -0.397923   -2.755707   -1.831326
H       1.073768    1.488697   -1.861231
H       0.899889    1.391855   -3.587071
