20

C      -0.001025    1.523059   -0.068546
C      -0.056007   -0.010923   -0.004019
C      -1.435946   -0.483589    0.217951
C      -2.560919   -0.886832    0.359009
N       0.570269   -0.585973   -1.191539
C      -0.083488   -0.472638   -2.518230
C       0.508232   -1.863271   -2.869314
O       1.712384   -1.837134   -3.597553
C       0.662189   -2.056385   -1.338114
H       1.035016    1.845891   -0.198309
H      -0.592316    1.894611   -0.910487
H      -0.404890    1.961663    0.847167
H       0.550750   -0.339436    0.850946
H      -3.552991   -1.238562    0.501577
H      -1.182256   -0.486988   -2.468689
H       0.247614    0.371346   -3.132401
H      -0.149924   -2.560010   -3.388899
H       2.305713   -1.223190   -3.149548
H       1.599833   -2.500297   -0.985464
H      -0.190934   -2.594234   -0.898711
