17

N      -0.002836    1.469224    0.263108
C      -0.013830    0.050512    0.035734
C       0.375345   -0.863207    1.240081
C      -0.916400   -1.707032    1.059058
C      -2.113865   -1.176347    1.855554
O      -2.359546   -0.132818    0.869600
C      -1.394869   -0.702656   -0.040122
C      -1.949284   -1.049335   -1.333322
N      -2.340541   -1.325604   -2.386400
H      -0.184960    1.975905   -0.597898
H      -0.750473    1.708497    0.910334
H       0.585770   -0.184018   -0.848045
H       1.308078   -1.411213    1.099016
H       0.427771   -0.331471    2.193797
H      -0.821801   -2.778044    0.897441
H      -2.967147   -1.861980    1.913411
H      -1.906040   -0.761127    2.847496
