11

C      -0.001036    1.430223   -0.016648
O       0.011638   -0.006546   -0.015876
C       0.595277   -0.601442   -1.041184
C       0.735940   -1.952589   -1.269001
N       1.402717   -2.063164   -2.449769
N       1.686806   -0.973032   -2.970338
O       1.136451    0.094256   -2.010981
H       1.018647    1.823966   -0.012558
H      -0.534546    1.809868   -0.891863
H      -0.520932    1.715115    0.897200
H       0.414410   -2.795666   -0.685642
