13

C      -0.053599    1.470064    0.043016
C       0.001706   -0.028510    0.002485
N       0.033391   -0.622172   -1.212247
C       0.081682   -1.935334   -1.218950
C       0.097634   -2.638627   -0.001591
O       0.146623   -3.979413   -0.000058
N       0.065004   -2.007683    1.157922
N       0.015969   -0.674959    1.165883
H       0.815932    1.897092   -0.466495
H      -0.942764    1.832614   -0.482302
H      -0.075522    1.816417    1.076373
H       0.108577   -2.459629   -2.171006
H       0.149129   -4.254492    0.929352
