24

C      -0.191487    1.503187   -0.129725
C       0.058508   -0.007503   -0.017460
C       0.803026   -0.522701   -1.256937
C       0.823424   -0.383656    1.266542
C       0.075693   -0.127375    2.569038
C      -1.195956   -0.966157    2.895588
C      -0.732098   -1.024671    4.375470
C       0.695436   -0.641593    3.900840
H       0.756833    2.054065   -0.156135
H      -0.737739    1.742635   -1.048279
H      -0.776676    1.888195    0.710546
H      -0.919286   -0.509590    0.018119
H       1.796088   -0.063508   -1.335422
H       0.942797   -1.608236   -1.216840
H       0.256536   -0.287754   -2.176567
H       1.080692   -1.451445    1.221366
H       1.781179    0.157986    1.283126
H      -0.156199    0.938727    2.671912
H      -2.173797   -0.526983    2.681702
H      -1.149006   -1.952567    2.420825
H      -1.186712   -0.229486    4.973620
H      -0.854217   -1.969906    4.909772
H       1.314232   -1.529401    3.730509
H       1.266954    0.066507    4.506614
