17

C       0.055032    1.177964   -0.445156
O      -0.150890    0.163922    0.517104
C      -1.357994   -0.510626    0.343239
C      -1.446651   -1.631836   -0.662456
C      -1.432315   -1.927342    0.826015
C      -0.227426   -2.589363    1.440108
O      -0.322196   -3.988691    1.194727
H       1.016821    1.645192   -0.220820
H       0.079157    0.770660   -1.466048
H      -0.732677    1.945408   -0.398252
H      -2.238449    0.120047    0.480394
H      -2.364708   -1.773828   -1.221655
H      -0.539200   -1.871229   -1.206999
H      -2.376238   -2.230868    1.269450
H       0.686493   -2.162152    1.006317
H      -0.204398   -2.380096    2.521514
H       0.422251   -4.413943    1.630605
