16

C      -0.032793   -1.216294   -0.010617
C      -0.015274   -0.013201    0.002615
C      -0.005986    1.420538    0.030784
C      -0.373486    2.225629   -1.252887
O       0.875132    2.959524   -1.208917
C       1.294619    2.284185   -0.021644
C       0.905901    2.928149    1.334285
N      -0.428400    3.547958    1.160619
C      -0.333203    2.098924    1.397671
H      -0.043815   -2.277857   -0.031653
H      -0.435272    1.602071   -2.150344
H      -1.240795    2.883743   -1.166215
H       2.295452    1.850641   -0.079019
H       1.572850    3.260205    2.120231
H      -0.672170    3.987623    2.047092
H      -0.822377    1.617350    2.234645
