23

C      -0.209071    1.529885    0.013227
C      -0.000814    0.017309   -0.017691
C       0.884882   -0.488697   -1.208474
C       2.006130   -1.286098   -0.502141
C       2.873834   -0.282538    0.270767
O       2.013743    0.178186    1.327032
C       0.770836   -0.552815    1.208868
C       0.056949   -0.503168    2.541833
C       1.242689   -1.918342    0.677767
H       0.746253    2.045924    0.143740
H      -0.667472    1.879025   -0.917861
H      -0.866224    1.829866    0.836416
H      -0.981565   -0.472680   -0.058646
H       0.313933   -1.129245   -1.887400
H       1.286725    0.338926   -1.802223
H       2.573064   -1.958024   -1.148298
H       3.768716   -0.749347    0.705365
H       3.194000    0.566544   -0.346386
H      -0.165982    0.529207    2.826858
H      -0.885612   -1.057297    2.494762
H       0.680884   -0.940369    3.326487
H       0.421318   -2.570266    0.367663
H       1.881835   -2.446738    1.390902
