18

C       0.054750    1.422448   -0.096243
C      -0.066759   -0.087278   -0.029199
O       0.215767   -0.742239    0.949445
N      -0.608563   -0.672664   -1.175978
C      -0.085695   -0.585878   -2.532585
C      -0.151871   -1.881185   -1.788162
C       0.982040   -2.814115   -1.361630
O       0.183153   -3.959312   -1.738224
C      -0.966631   -3.143337   -2.049968
H       0.931654    1.702273   -0.691231
H      -0.822103    1.867984   -0.572862
H       0.179920    1.814969    0.912774
H      -0.809654   -0.363129   -3.313077
H       0.896905   -0.138821   -2.675760
H       1.909968   -2.748359   -1.942513
H       1.204910   -2.792945   -0.290504
H      -1.794712   -3.300325   -1.347729
H      -1.319670   -3.297362   -3.076951
