17

C       0.212679    1.439999    0.064147
O      -0.286090    0.171001   -0.297181
C       0.529239   -0.504072   -1.214976
C       1.766489   -1.239095   -0.648109
O       1.217864   -2.521639   -1.005930
C       0.017729   -1.923623   -1.561039
C      -1.247924   -2.410625   -0.885290
H       1.190115    1.372765    0.565100
H       0.319811    2.096811   -0.813345
H      -0.505595    1.885736    0.755942
H       0.737835    0.134779   -2.085041
H       2.721476   -1.043151   -1.151452
H       1.895929   -1.130092    0.436437
H      -0.030468   -2.108697   -2.642792
H      -1.236151   -2.177246    0.180882
H      -2.128087   -1.938617   -1.333443
H      -1.333656   -3.494156   -1.012287
