18

C      -0.006646    1.383327   -0.185167
C       0.085512   -0.099105    0.072509
N       1.392269   -0.733741    0.001667
C       0.718202   -0.697308    1.313785
C       1.351991    0.134059    2.414650
C       2.660396   -0.470555    2.894934
O       2.930941   -0.675483    4.049813
C       0.085863   -1.984613    1.741876
O      -0.132409   -2.898494    0.981073
H       0.896328    1.907531    0.133984
H      -0.124624    1.560382   -1.259470
H      -0.872163    1.819421    0.323864
H      -0.751804   -0.682939   -0.306820
H       1.290581   -1.681685   -0.363836
H       1.578142    1.136015    2.034589
H       0.678987    0.240475    3.271356
H       3.371645   -0.716146    2.076706
H      -0.178444   -2.053415    2.818151
