17

C      -0.187405    1.472066    0.070640
C      -0.066477   -0.011211    0.003090
N      -0.127842   -0.750334   -1.081349
C       0.026646   -2.077494   -0.695390
C       0.179387   -2.107410    0.657995
O       0.417779   -2.986618    1.665978
C       0.209313   -2.252924    2.890431
C       0.374633   -0.748937    2.531805
N       0.108045   -0.816321    1.108224
H       0.717062    1.944123    0.473689
H      -0.349597    1.849292   -0.940008
H      -1.029637    1.789198    0.697895
H       0.013223   -2.887431   -1.404544
H      -0.805766   -2.452045    3.254135
H       0.932639   -2.605105    3.627333
H      -0.341603   -0.120868    3.067278
H       1.387287   -0.379658    2.733244
