15

O       0.161559    1.426860    0.120093
C       0.024267    0.070263    0.033378
C       0.484417   -0.768516   -1.188842
C      -0.500538   -1.826284   -0.696919
N      -0.515912   -1.857055    0.801789
C       0.459232   -0.792147    1.218221
C      -1.320811   -0.839465    0.056440
C      -2.707227   -0.590030    0.181932
N      -3.832121   -0.326029    0.260994
H      -0.053558    1.831629   -0.727654
H       0.142781   -0.338280   -2.135118
H       1.547984   -1.019168   -1.249437
H      -0.839965   -2.721644   -1.199548
H       1.505379   -1.112377    1.261312
H       0.140261   -0.386754    2.180019
