21

O      -0.351579    1.507194    0.694457
C      -0.001128    0.169224    0.385083
C      -1.036446   -0.613347   -0.410540
C      -2.443179   -0.144684   -0.552143
N      -1.548705   -0.179852   -1.707982
C      -1.090368    1.084962   -2.284279
C      -1.709092    1.314147   -3.653940
C      -1.872529    0.204330   -4.619569
N      -3.054490    0.819045   -3.978417
H      -1.058455    1.483396    1.347055
H       0.931444    0.233381   -0.187966
H       0.227401   -0.405110    1.296088
H      -0.859140   -1.688640   -0.362232
H      -3.266978   -0.854246   -0.555227
H      -2.686431    0.835237   -0.145023
H      -1.297803    1.941231   -1.628772
H       0.000434    1.039265   -2.400624
H      -1.509072    2.309147   -4.048363
H      -1.779424    0.388532   -5.686212
H      -1.578879   -0.786668   -4.286947
H      -3.352830    0.196985   -3.229586
