21

C       0.123360    1.483550   -0.224394
C      -0.066147    0.014770    0.087354
C      -1.122526   -0.676975   -0.749622
O       1.146726   -0.746701    0.254449
C       0.294449   -0.572071    1.393643
C       0.875258    0.167982    2.576068
C       1.984891   -0.660744    3.254594
C       2.661266    0.107191    4.364695
O       2.745605   -0.257058    5.508981
H       0.955127    1.917259    0.332120
H       0.333459    1.612759   -1.291674
H      -0.786177    2.049033    0.005517
H      -0.876960   -0.598343   -1.814276
H      -1.191798   -1.736670   -0.492809
H      -2.104021   -0.214902   -0.597854
H      -0.238788   -1.484598    1.675306
H       1.283179    1.133328    2.262397
H       0.072804    0.373650    3.295485
H       1.598021   -1.599729    3.661015
H       2.742422   -0.897456    2.494554
H       3.094167    1.085010    4.043526
