16

C       0.020118    1.563698   -0.003393
C      -0.042425    0.066308    0.072483
C       1.159734   -0.826862   -0.288693
C       0.577290   -1.009135    1.056791
O       1.235730   -0.839337    2.252046
C      -0.686547   -1.863170    0.986107
C      -1.280150   -0.769384    0.056605
O      -2.394684   -0.567815   -0.342410
H       0.945435    1.939683    0.446832
H      -0.013510    1.916257   -1.039989
H      -0.822432    2.014390    0.529266
H       1.092555   -1.594693   -1.056891
H       2.085610   -0.255057   -0.324931
H       2.158857   -0.631559    2.079367
H      -0.589933   -2.884527    0.604479
H      -1.234798   -1.877184    1.932659
