17

C       0.071289    1.449878   -0.064105
C      -0.143776   -0.045670    0.140655
N       0.710838   -0.539633    1.215190
C       0.866334   -1.871785    1.452035
N       1.299143   -2.427586    2.552060
C       1.334644   -3.774470    2.236230
O       1.741955   -4.683120    3.142534
C       0.917353   -3.984771    0.968146
O       0.602785   -2.722156    0.448449
H       1.114689    1.663267   -0.312553
H      -0.563023    1.816371   -0.875702
H      -0.186884    2.015478    0.838623
H      -1.206278   -0.251734    0.342992
H       0.116777   -0.594192   -0.768156
H       0.729512    0.008819    2.062316
H       1.973465   -4.187585    3.937012
H       0.773054   -4.829339    0.323183
