21

C      -0.007385    1.543626    0.035367
C       1.448112    1.958725   -0.066154
C       2.427183    1.286760    0.887315
C       2.018341    0.637771    2.208313
C       1.305639   -0.718560    2.098270
C      -0.041818   -0.689359    1.364097
C       0.035368   -0.007452   -0.014473
O       1.271239   -0.345361   -0.666057
C       2.175010    0.715937   -0.494562
H      -0.509148    1.901384    0.939892
H      -0.558432    1.939787   -0.823691
H       1.682086    2.938521   -0.466415
H       3.373966    1.818776    0.947662
H       2.926656    0.490785    2.803820
H       1.397451    1.339446    2.783336
H       1.967567   -1.418289    1.578244
H       1.151038   -1.120441    3.106290
H      -0.387377   -1.721447    1.234952
H      -0.805154   -0.180874    1.966957
H      -0.766873   -0.395355   -0.650435
H       2.964564    0.691245   -1.236996
