19

C      -1.535228   -0.273214    0.713440
C      -0.133856   -0.163676    0.143877
O       0.746718    0.422859    0.729667
C       0.121778   -0.841518   -1.202852
C      -0.934909   -0.469399   -2.244498
O      -1.129781    0.930338   -2.354942
C       1.584607   -0.785224   -1.697973
O       1.691817   -2.225976   -1.696464
C       0.384999   -2.374391   -1.123245
H      -2.193762    0.401524    0.155336
H      -1.939284   -1.286078    0.612251
H      -1.525495    0.023714    1.762576
H      -0.661465   -0.922263   -3.209750
H      -1.908489   -0.881702   -1.959637
H      -0.305152    1.329222   -2.652518
H       1.737867   -0.366955   -2.701787
H       2.273203   -0.315774   -0.990209
H       0.419505   -2.791704   -0.108265
H      -0.276350   -2.995543   -1.742010
