20

C      -0.030542    1.386309    0.009111
O       0.033856   -0.019400    0.007003
C       0.633098   -0.537896   -1.162115
C       0.616993   -2.063485   -1.069156
C      -0.826312   -2.606972   -1.021397
C       1.367077   -2.679136   -2.248987
C       1.947474   -4.066407   -2.040837
O       1.491386   -2.088128   -3.298866
H       0.971264    1.841151   -0.046219
H      -0.625702    1.769855   -0.834660
H      -0.505386    1.691840    0.944781
H       0.091068   -0.210171   -2.062040
H       1.667806   -0.171596   -1.260909
H       1.122458   -2.358058   -0.140376
H      -0.849492   -3.689848   -0.869305
H      -1.364451   -2.130349   -0.199785
H      -1.351555   -2.381496   -1.955469
H       1.218434   -4.741987   -1.582572
H       2.291925   -4.473441   -2.992239
H       2.796342   -4.000883   -1.349200
