13

O       0.175307    1.255610    0.597363
C       0.151417   -0.020223    0.228505
N       0.997869   -0.654554   -0.519756
C       0.480144   -1.946009   -0.553945
C      -0.649758   -2.010474    0.180716
N      -1.572285   -3.000080    0.476457
C      -2.651942   -3.305969   -0.331851
O      -2.894874   -2.792846   -1.392084
O      -0.874692   -0.731005    0.702110
H       0.954869    1.649446    0.183936
H       0.956536   -2.737900   -1.109188
H      -1.521368   -3.468279    1.370681
H      -3.267499   -4.107028    0.123095
