18

C       0.584135    1.092066    0.665636
N      -0.281624    0.359325   -0.250185
C       0.421312   -0.260261   -1.339462
C       1.274849   -1.550167   -1.093651
N       0.326756   -2.537935   -0.548561
C       0.414073   -2.337235   -2.034624
C      -0.392459   -1.121523   -2.328171
N      -1.264990   -0.930445   -3.225142
O      -1.702735    0.401688   -3.249216
H       1.394850    0.490141    1.112798
H       1.047283    1.932047    0.135122
H      -0.017569    1.505366    1.480022
H      -0.790349   -0.362878    0.250583
H       0.991045    0.498148   -1.889686
H       2.341514   -1.632800   -0.928094
H       0.851033   -3.388277   -0.342020
H       0.658931   -3.158623   -2.693926
H      -2.340835    0.390449   -3.970771
