15

C      -0.029382    1.489752    0.035044
C      -0.003984    0.035368    0.029453
C       0.029509   -1.168512    0.023751
C       0.066136   -2.602187   -0.014791
C      -0.471774   -3.378715    1.164098
N      -1.210883   -3.379784   -0.084858
C       1.164408   -3.267666   -0.795840
O       2.118551   -2.708315   -1.263223
H       0.982893    1.895518   -0.066720
H      -0.629612    1.881711   -0.793311
H      -0.451696    1.878148    0.968176
H      -0.010818   -4.326993    1.428939
H      -0.821095   -2.781992    2.001059
H      -1.982237   -2.718219   -0.043052
H       1.001355   -4.363570   -0.896093
