17

C      -0.505409    0.204675    0.026382
N       0.446863   -0.758893    0.543688
C       0.839695   -0.620301    1.732053
O       1.734263   -1.432049    2.332375
C       2.302244   -2.467831    1.535581
C       1.350991   -3.666517    1.343475
O       1.976878   -4.678411    0.580117
C       0.867375   -4.180565    2.639191
N       0.523051   -4.613205    3.653785
H      -0.794136    0.977429    0.755206
H      -0.082907    0.701359   -0.853842
H      -1.411526   -0.314989   -0.303516
H       0.522819    0.158907    2.433348
H       2.566001   -2.092760    0.544009
H       3.200025   -2.787538    2.071323
H       0.492130   -3.327514    0.759079
H       2.660884   -5.092459    1.119450
