19

C       0.018673    1.391425    0.039400
N       0.017486   -0.056716    0.062192
N      -0.027975   -0.731691   -1.108097
C      -0.048148   -2.014156   -0.757610
C      -0.020565   -2.172502    0.640100
C       0.018637   -0.884418    1.145877
C       0.104534   -0.391135    2.555495
C       1.555497   -0.208193    3.043161
O       1.623192    0.318121    4.355394
H       0.916469    1.797882    0.515247
H       0.000004    1.692386   -1.007120
H      -0.863437    1.796213    0.546011
H      -0.085328   -2.775619   -1.522905
H      -0.034448   -3.087874    1.210474
H      -0.421138    0.562372    2.676301
H      -0.398637   -1.112247    3.210584
H       2.093560   -1.163677    2.953850
H       2.076724    0.512885    2.404964
H       1.269142   -0.342384    4.959450
