20

N      -0.116117    1.272808   -0.239723
C      -0.057498    0.018120   -0.109688
O      -1.186593   -0.705779   -0.014746
C      -1.029127   -2.111282    0.210886
C      -2.386287   -2.760997    0.029484
C      -3.024981   -2.817773   -1.400065
C      -3.150856   -4.341165   -1.260628
C      -1.795833   -4.952845   -1.064125
C      -2.469177   -4.292008    0.110992
H       0.823954    1.656771   -0.309798
H       0.858616   -0.588934   -0.068915
H      -0.295149   -2.521153   -0.495135
H      -0.653929   -2.284709    1.229525
H      -3.085597   -2.295778    0.729412
H      -3.980613   -2.293468   -1.445525
H      -2.398162   -2.467055   -2.226660
H      -4.005859   -4.930950   -1.566726
H      -1.774169   -6.037064   -1.019123
H      -0.919914   -4.517174   -1.539486
H      -2.705365   -4.850427    1.009046
