19

C      -0.020096    1.527130    0.036448
C       1.519675    1.487387   -0.004598
C       1.342540    0.022726    0.559619
C       1.903903   -0.842705   -0.568076
C       2.942895    0.103365   -1.202815
N       2.065729    1.289855   -1.394052
C       0.981434    0.657241   -2.195756
C       0.548757   -0.503977   -1.295191
N      -0.070519    0.024377    0.004052
H      -0.377022    1.845298    1.020840
H      -0.579975    2.076940   -0.723810
H       2.111796    2.230686    0.534456
H       1.489875   -0.180667    1.622365
H       2.165328   -1.880808   -0.374479
H       3.765573    0.333801   -0.518257
H       3.359295   -0.227282   -2.157892
H       0.186213    1.361508   -2.440006
H       1.406146    0.302745   -3.140033
H      -0.041490   -1.295567   -1.758909
