12

N      -0.007996    1.377391    0.176513
C      -0.009248    0.000946    0.065945
C      -1.202422   -0.744606    0.039732
N      -1.195296   -2.072192   -0.013132
C      -0.016544   -2.654742   -0.033947
F       0.006752   -3.985066   -0.084295
C       1.177460   -1.944698   -0.010885
N       1.178779   -0.614492    0.034238
H       0.872146    1.806439   -0.067977
H      -0.816146    1.863047   -0.179637
H      -2.172087   -0.253095    0.062664
H       2.134358   -2.457293   -0.035356
