18

C       0.453065    1.307392   -0.118642
C      -0.047020   -0.137504   -0.031175
C       0.308149   -0.994227   -1.287230
C       1.488403   -1.843466   -0.810531
O       2.666793   -1.075654   -1.010662
C       1.142486   -2.019174    0.669171
O       0.605959   -0.768471    1.079127
C      -1.508182   -0.159913    0.209375
N      -2.650254   -0.177917    0.385283
H       1.520920    1.285486   -0.344781
H      -0.076197    1.854007   -0.904020
H       0.293422    1.817435    0.833971
H      -0.528774   -1.634481   -1.572003
H       0.581604   -0.373539   -2.141037
H       1.546692   -2.805341   -1.337835
H       3.399736   -1.519249   -0.571780
H       0.411587   -2.832382    0.800574
H       2.012761   -2.231979    1.298510
