15

O       0.033986   -0.043911    0.051770
C      -0.022601    1.164866    0.065797
C      -1.282333    1.945460    0.096523
C      -1.221053    3.283310    0.115796
C       0.128511    3.958009    0.117300
C       0.769958    3.899455   -1.291371
O       1.316092    2.583106   -1.330177
C       1.232468    2.057442   -0.000819
O       1.071194    3.164045    0.849098
H      -2.214454    1.390455    0.103698
H      -2.112527    3.903545    0.096915
H       0.105956    4.957224    0.552558
H       0.053258    4.025360   -2.107293
H       1.569913    4.643691   -1.380437
H       2.140692    1.507503    0.252683
