18

C      -0.391526    1.030445    1.173722
C       0.192377    0.467384   -0.137843
N       1.568976   -0.025874    0.044635
C       1.796260   -1.046427    0.731266
C       3.049543   -1.805403    1.116465
C       2.060706   -2.723489    1.863615
O       0.944509   -1.893000    1.418971
C      -0.700186   -0.526100   -0.744060
C      -1.441367   -1.320333   -1.258201
H       0.292911    1.777418    1.585354
H      -1.358667    1.503685    0.984049
H      -0.529346    0.231266    1.904686
H       0.274686    1.300183   -0.846610
H       3.584821   -2.255788    0.279200
H       3.750437   -1.246904    1.738897
H       1.962646   -3.742590    1.482831
H       2.131528   -2.730613    2.953795
H      -2.091746   -2.029250   -1.707283
