14

O      -0.329952    0.411179   -0.735481
C       0.034637    1.126249    0.163283
C       1.282368    1.960536    0.088853
C       2.318999    1.563634   -0.950740
C       1.531775    2.802866   -1.196345
C       0.527186    2.876831   -2.221336
N      -0.259155    2.991095   -3.060572
C       1.756256    2.597039    1.351209
O       1.220248    2.458891    2.419928
H      -0.519580    1.218927    1.114168
H       3.365898    1.674443   -0.691968
H       2.049339    0.682953   -1.522044
H       2.033795    3.749354   -1.014141
H       2.670736    3.224100    1.235011
