16

C      -0.382997    1.492178    0.100983
N      -0.080947    0.053944    0.035450
C       0.321753   -0.593263    1.092716
N       0.482482   -0.053075    2.294347
H       0.835446   -0.612083    3.052404
H       0.265656    0.913478    2.479303
C      -0.267167   -0.723634   -1.205627
N      -0.428002   -1.963664   -1.043428
C      -0.168417   -0.018900   -2.632655
O      -0.323457   -0.852621   -3.525669
O       0.062820    1.202536   -2.631301
H       0.454163    2.023361    0.566579
H      -0.481932    1.828122   -0.936223
H      -1.296625    1.648623    0.685343
H       0.515819   -1.653361    0.960910
H      -0.485472   -2.338158   -2.000287
