20

C       0.706517    1.361398   -0.079890
N       1.297342    0.003645   -0.137755
C      -0.149671    0.165144    0.014534
C      -0.904971   -0.445860    1.199494
C      -1.729743   -1.274262    0.179785
C      -1.595580   -2.810489    0.104626
C      -3.120541   -2.810341    0.320861
O      -3.151598   -1.367996    0.369135
C      -1.205710   -0.365199   -0.964112
H       0.956741    1.927977    0.813496
H       0.664971    1.952400   -0.992047
H       1.520712   -0.227281   -1.103769
H      -0.308208   -0.995196    1.931629
H      -1.545686    0.278227    1.712284
H      -1.258305   -3.199753   -0.857947
H      -1.004895   -3.263330    0.902734
H      -3.722925   -3.204193   -0.506297
H      -3.470532   -3.257473    1.258779
H      -1.955371    0.386953   -1.229690
H      -0.853670   -0.859152   -1.875845
