21

C      -0.265324    1.320138    0.156946
C      -0.087442   -0.123168    0.081767
C       0.056702   -1.317230    0.011117
C       0.221450   -2.780839   -0.073113
C       1.044430   -3.164166   -1.303008
C       0.768973   -3.348040    1.256931
C      -0.491109   -3.415017    2.136467
C      -1.640114   -3.536829    1.102566
O      -1.052155   -3.427977   -0.193217
H       0.358806    1.836358   -0.580885
H      -1.306446    1.600520   -0.037608
H       0.002683    1.706554    1.146546
H       2.045473   -2.728816   -1.243063
H       1.127388   -4.252794   -1.364074
H       0.560617   -2.796473   -2.210871
H       1.167169   -4.349596    1.064997
H       1.564207   -2.734214    1.683869
H      -0.467585   -4.255840    2.833358
H      -0.599691   -2.499961    2.723833
H      -2.153108   -4.503001    1.144534
H      -2.388385   -2.746823    1.248697
