19

C      -0.047677    1.467798   -0.002160
C      -0.006635   -0.028039    0.002678
O      -1.192003   -0.659702   -0.434268
C      -0.819085   -2.002144   -0.307218
C       0.625516   -2.230197   -0.885696
C       0.854077   -3.213945    0.295331
C      -0.085787   -2.243340    1.063045
C       0.653613   -0.899933    1.054447
C       1.179662   -0.890186   -0.386872
H       0.904606    1.875733    0.347803
H      -0.233600    1.848591   -1.011418
H      -0.841210    1.837354    0.655036
H      -1.618112   -2.677154   -0.603424
H       0.807404   -2.502732   -1.924526
H       0.397101   -4.193157    0.121937
H       1.874198   -3.337365    0.666850
H      -0.614655   -2.528999    1.971463
H       1.193900   -0.503664    1.903632
H       2.138178   -0.486158   -0.683625
