16

O      -0.540729    1.020337    0.935386
C       0.100293    1.227439   -0.062809
C       1.429225    1.936505   -0.123828
N       1.545316    3.056035   -1.186306
C       1.257815    4.511753   -0.670629
C       0.495351    4.891783    0.612607
C       0.832190    3.681607    1.472023
C       1.847888    2.999424    0.894277
C       2.461572    3.788735   -0.267421
H      -0.254458    0.894081   -1.064573
H       2.193468    1.204561   -0.422091
H       1.239425    5.160317   -1.541677
H       0.833467    5.885673    0.939944
H      -0.593900    4.947342    0.505501
H       0.047894    3.168968    2.015865
H       3.506045    3.967656   -0.496951
