17

C      -0.080946    1.333386    0.035112
O       0.061222   -0.079928    0.009050
C       0.652405   -0.608095    1.155786
O      -0.167993   -0.488511    2.307588
C      -0.441835   -1.755790    2.817102
N      -1.139584   -1.961116    3.852339
C       0.206329   -2.740258    1.961862
C       0.838363   -2.097340    0.965629
N       1.600174   -2.529747   -0.084550
H       0.890805    1.826603    0.184084
H      -0.488992    1.628328   -0.933327
H      -0.765109    1.646932    0.830851
H       1.599319   -0.081040    1.363257
H      -1.477530   -1.077612    4.235105
H       0.126166   -3.802250    2.134530
H       1.523498   -3.506420   -0.326039
H       1.585738   -1.917317   -0.888239
