18

C      -0.133806    1.522317    0.013943
C       0.051003    0.027565    0.170499
C       1.280366   -0.758119   -0.192576
C       2.569884   -0.009099    0.177955
C       2.093892   -0.007108    1.678373
C       2.070834    1.284063    2.452869
O       1.102338    1.760055    2.989244
C       0.790839   -0.694689    1.266220
H       0.794796    2.084184    0.136225
H      -0.523279    1.751327   -0.984288
H      -0.840550    1.906191    0.755284
H      -0.849845   -0.527365   -0.088966
H       1.248230   -1.594801   -0.880110
H       3.473210   -0.603312    0.032004
H       2.718997    0.966775   -0.294980
H       2.743084   -0.688213    2.244193
H       3.064599    1.790790    2.515506
H       0.306260   -1.465998    1.852365
