17

O       0.286935    1.344866    0.145666
C       0.026213   -0.001350   -0.007226
C      -1.346669   -0.652828    0.045108
C      -2.558926    0.189587   -0.272153
O      -2.282837    1.567369   -0.635827
C      -2.527192    0.613857   -1.678347
C      -1.254784    0.065370   -2.336101
O      -0.421208    1.063388   -2.903237
C      -0.504626   -0.696377   -1.239707
H      -0.452563    1.825765   -0.252766
H       0.799416   -0.574794    0.497654
H      -1.508856   -1.526034    0.667050
H      -3.479787    0.054636    0.286841
H      -3.412524    0.815514   -2.278356
H      -1.569208   -0.659828   -3.104565
H      -0.904583    1.494982   -3.615733
H      -0.000955   -1.605691   -1.549446
