19

C      -0.121883    1.602541   -0.021771
C       0.038095    0.092218    0.017128
C       1.191323   -0.590040   -0.762873
O       2.338756    0.098064   -0.299463
C       2.223726   -0.161508    1.154669
C       3.013531   -1.432904    1.360731
C       2.324306   -2.413601    0.759814
C       1.044361   -1.833958    0.264606
C       0.738880   -0.620102    1.201498
H       0.843472    2.102895    0.085238
H      -0.562430    1.926307   -0.971238
H      -0.782051    1.947660    0.781628
H      -0.911261   -0.413439   -0.189611
H       1.226009   -0.714631   -1.844278
H       2.521660    0.731751    1.701417
H       4.019743   -1.476726    1.756796
H       2.657662   -3.428452    0.580389
H       0.214905   -2.497612    0.027108
H       0.291661   -0.757175    2.186302
