22

C      -0.083220    1.652828   -0.046034
C       0.166006    0.156987    0.042592
C       1.414242   -0.663987   -0.214763
C       2.711861   -0.194861    0.493294
C       2.034585   -0.208703    1.809541
N       2.493212    1.068169    1.226544
C       3.712751    1.558791    1.863305
C       0.708078   -0.709473    1.154031
C      -0.055971   -1.834632    1.792949
H      -0.180429    1.947988   -1.097738
H      -1.031178    1.897427    0.448494
H       0.714370    2.230702    0.409051
H      -0.668554   -0.387389   -0.407289
H       1.436102   -1.441256   -0.970528
H       3.714863   -0.505884    0.228275
H       2.399904   -0.532917    2.777010
H       4.391573    0.756484    2.201755
H       4.257774    2.190526    1.154814
H       3.444308    2.167727    2.732413
H      -0.618536   -1.489789    2.670128
H      -0.772880   -2.271504    1.090339
H       0.614252   -2.636327    2.127356
