17

C       0.192272    1.272202   -0.481329
C       0.039240   -0.121271    0.161809
C       0.617398   -0.138852    1.583272
C      -1.393794   -0.571195    0.153248
C      -2.341799   -0.755643    1.135964
N      -3.511827   -1.164760    0.566945
N      -3.351600   -1.249004   -0.719952
N      -2.075935   -0.891019   -0.977270
H       1.246131    1.566055   -0.509997
H      -0.190266    1.291056   -1.506541
H      -0.358179    2.023883    0.093278
H       0.616774   -0.833456   -0.444793
H       0.092637    0.574372    2.227627
H       0.534650   -1.130773    2.035955
H       1.674064    0.142942    1.566336
H      -2.251763   -0.623947    2.201533
H      -1.748908   -0.898687   -1.930419
