22

C       0.293495    1.181347    1.225709
C      -0.002996   -0.201219    0.634343
C      -1.379097   -0.403452   -0.064261
C      -2.546252   -0.124112    0.902425
C      -1.480031    0.606338   -1.211397
O      -1.358123    0.372682   -2.388053
N      -1.450080   -1.824731   -0.407487
C      -2.266841   -2.343720   -1.495451
C      -0.776001   -2.417151   -1.556785
H       1.267763    1.167358    1.723649
H       0.333304    1.965012    0.462772
H      -0.448976    1.477570    1.972615
H       0.776452   -0.462708   -0.090872
H       0.042019   -0.961764    1.421632
H      -2.588304    0.925771    1.204650
H      -3.500258   -0.379194    0.430556
H      -2.434584   -0.742996    1.795949
H      -1.686466    1.647971   -0.869302
H      -2.853930   -3.225635   -1.250437
H      -2.740272   -1.648326   -2.181599
H      -0.294965   -1.768245   -2.279553
H      -0.264804   -3.354997   -1.351943
