16

C       0.000873    1.563450   -0.006850
C       0.053324    0.054463   -0.079225
C       0.654127   -0.742676   -1.217215
C       1.949246   -0.099346   -1.691158
O       2.462270   -0.014654   -0.334699
C       1.319845   -0.733628    0.163325
C       1.506153   -1.729530    1.158491
C       1.656334   -2.565117    2.011270
H       0.970996    2.002243   -0.249753
H      -0.748121    1.965783   -0.697145
H      -0.264570    1.887733    1.004271
H      -0.813919   -0.455583    0.334550
H       0.130838   -1.548198   -1.714274
H       2.572082   -0.770818   -2.291811
H       1.888239    0.882043   -2.174746
H       1.793649   -3.303104    2.762416
