17

N      -0.045549   -1.127061   -0.006430
C      -0.035548    0.029942    0.006487
C      -0.023273    1.470558    0.008875
C      -0.479375    2.212825   -1.292914
C       0.852630    3.029535   -1.286068
C       1.296946    2.305093    0.009875
N       0.997492    2.906284    1.368557
C      -0.297547    3.612826    1.316745
C      -0.319049    2.143381    1.370798
H      -0.573565    1.538386   -2.144742
H      -1.406930    2.779574   -1.190343
H       1.501448    2.792478   -2.131694
H       0.765717    4.116125   -1.220496
H       2.275791    1.829380    0.023937
H      -0.505446    4.136229    2.245159
H      -0.602778    4.156254    0.429377
H      -0.650698    1.584723    2.239727
