25

C      -1.001741    0.903494   -0.392185
C       0.125347   -0.065459   -0.069878
C       1.511458    0.150086   -0.738918
C       2.196783   -0.203663    0.621269
C       0.827674    0.033419    1.313919
C       2.736127   -1.642593    0.666788
C       4.139760   -1.520970    0.049571
C       4.665179   -0.138827    0.527574
C       3.416795    0.622786    1.055508
H      -0.686011    1.940659   -0.228905
H      -1.319565    0.813821   -1.437379
H      -1.879232    0.720199    0.238536
H      -0.214557   -1.092968   -0.240297
H       1.757542   -0.468824   -1.607514
H       1.665757    1.200710   -1.009060
H       0.754154    1.046230    1.726629
H       0.529899   -0.678248    2.090476
H       2.807636   -1.968726    1.713356
H       2.097149   -2.363047    0.145831
H       4.799526   -2.346689    0.330261
H       4.062568   -1.535783   -1.043273
H       5.414574   -0.249966    1.316725
H       5.153611    0.400031   -0.289158
H       3.363548    1.655149    0.696146
H       3.440855    0.672878    2.151209
