25

C      -0.367167    1.671748   -0.014301
C      -0.150455    0.147061    0.097931
C       0.685133   -0.153064    1.357527
C      -1.544139   -0.495839    0.262628
C       0.564742   -0.382786   -1.197479
C       2.081683   -0.135497   -1.258140
O       2.397891    1.233515   -1.052804
C       0.358540   -1.884540   -1.464041
O      -0.875524   -2.066077   -2.145639
H       0.574686    2.205099   -0.137027
H      -1.008019    1.907738   -0.871552
H      -0.869438    2.047519    0.884665
H       0.139723    0.158764    2.254604
H       0.896670   -1.223733    1.464042
H       1.635943    0.386439    1.341424
H      -2.162264   -0.347328   -0.626066
H      -1.491442   -1.572534    0.447152
H      -2.055286   -0.039746    1.117888
H       0.113711    0.132494   -2.055039
H       2.587498   -0.767014   -0.509868
H       2.437761   -0.462963   -2.247246
H       3.353781    1.327387   -1.097962
H       1.188398   -2.266498   -2.080632
H       0.379728   -2.448334   -0.518837
H      -1.044261   -3.010470   -2.214206
