25

C      -0.024274    1.418078   -0.073006
O      -0.028358    0.033199    0.173898
C      -1.304666   -0.593064    0.063395
C      -1.742567   -0.768020   -1.401383
C      -0.805991   -1.715253   -2.162818
C      -0.687067   -3.087302   -1.476330
C       0.259948   -4.019554   -2.236308
C      -0.253314   -2.904919   -0.011246
C      -1.184773   -1.955207    0.754131
H       0.981609    1.782694    0.152139
H      -0.255609    1.668109   -1.118875
H      -0.743672    1.947647    0.572044
H      -2.047885    0.024164    0.595265
H      -2.764980   -1.168976   -1.402778
H      -1.796686    0.204635   -1.902719
H      -1.156977   -1.839573   -3.194201
H       0.191198   -1.260371   -2.221322
H      -1.688334   -3.546897   -1.474524
H       1.274402   -3.604707   -2.268764
H       0.318913   -5.003503   -1.758561
H      -0.071344   -4.167765   -3.269956
H      -0.217661   -3.877851    0.493416
H       0.765528   -2.498911    0.012436
H      -0.823649   -1.803952    1.776550
H      -2.188452   -2.393798    0.825882
