14

C      -0.087985   -1.233159    0.019784
C      -0.031999   -0.034187    0.022553
C       0.021073    1.428835    0.026251
C       1.384125    1.960935   -0.022628
C       2.499148    2.411052   -0.065421
C       3.843384    2.921676   -0.086387
C       4.364318    3.702807   -1.225824
O       4.013532    4.347030   -0.008248
H      -0.133758   -2.294026    0.017754
H      -0.554163    1.815671   -0.826190
H      -0.487010    1.808702    0.923524
H       4.562487    2.361835    0.510769
H       5.429229    3.663324   -1.451731
H       3.707689    3.902427   -2.070369
