18

O      -0.242942    1.280879    0.285767
N      -0.019788   -0.112009    0.121730
C      -1.127179   -0.717220   -0.055824
C      -1.229548   -2.182991   -0.212719
C      -2.152225   -2.855391    0.800431
C      -2.679776   -2.490022   -0.552561
C      -3.442650   -1.173217   -0.662240
C      -2.512974   -0.075457   -0.102075
O      -2.938938    0.305833    1.204249
H       0.653241    1.618340    0.383804
H      -0.389823   -2.739455   -0.608473
H      -1.951422   -3.901604    1.002862
H      -2.476557   -2.274676    1.657094
H      -2.917447   -3.283889   -1.251218
H      -3.668851   -0.963430   -1.712323
H      -4.387980   -1.175525   -0.112044
H      -2.489082    0.802352   -0.759020
H      -2.288452    0.945882    1.518568
