15

C      -0.069988    1.471148    0.008381
N       0.040404    0.027907    0.022591
C       0.145006   -0.806803   -1.031630
O       0.176517   -0.303272   -2.280516
N       0.199675   -2.074526   -0.701235
C       0.109212   -2.077048    0.673860
O       0.145020   -3.229385    1.387432
C       0.014422   -0.808596    1.160938
O      -0.144058   -0.277072    2.403889
H       0.819172    1.928890   -0.435429
H      -0.948703    1.791516   -0.558900
H      -0.170893    1.805632    1.041417
H       0.235467   -1.060775   -2.875710
H       0.208698   -3.942022    0.741370
H       0.676655   -0.374317    2.900640
