16

C       0.026836    1.438360   -0.019343
C       0.012724   -0.070490   -0.131521
O       1.005986   -0.741107   -0.308876
C      -1.321457   -0.703882   -0.009221
N      -2.471267   -0.122583    0.181323
C      -3.381119   -1.156599    0.219190
C      -2.728428   -2.341958    0.046410
C      -3.146111   -3.763978   -0.007776
O      -1.407080   -2.057865   -0.100682
H       1.052872    1.791801   -0.123751
H      -0.608524    1.883982   -0.790791
H      -0.386838    1.752921    0.943634
H      -4.436289   -0.987483    0.366553
H      -2.881609   -4.218372   -0.968562
H      -2.659298   -4.350314    0.778835
H      -4.227505   -3.838079    0.124164
