16

C      -0.011064    1.577424    0.054739
C       0.044993    0.046795   -0.035611
C       0.840740   -0.517755   -1.239119
O       1.293401    0.532905   -2.085826
C       1.986090   -1.281073   -0.601046
C       1.925455   -1.307342    0.732764
C       0.744093   -0.544316    1.203968
O       0.385818   -0.392893    2.348335
H       0.991782    2.011114    0.048696
H      -0.561633    2.000393   -0.788085
H      -0.507806    1.858041    0.986927
H      -0.980293   -0.338714   -0.044804
H       0.212736   -1.213424   -1.817628
H       1.723056    0.138040   -2.851244
H       2.756816   -1.747701   -1.207874
H       2.614471   -1.790393    1.414275
