13

C      -0.033162    1.504308   -0.008321
C      -0.009620    0.007998   -0.051687
N      -0.044805   -0.625709   -1.179691
C      -0.020663   -2.004636   -1.156478
C       0.037691   -2.691617   -0.002427
O       0.075735   -2.066288    1.192298
C       0.055447   -0.680324    1.258855
O       0.089724   -0.148129    2.334443
H       0.858271    1.886908    0.500413
H      -0.082388    1.900782   -1.022679
H      -0.891137    1.857322    0.573963
H      -0.050758   -2.517232   -2.109477
H       0.059572   -3.770221    0.091473
