17

C       0.008398    1.561156   -0.049040
C       0.005829    0.056664   -0.071249
C       0.455958   -0.837838   -1.243119
C      -0.271098   -1.930111   -0.436416
O       0.580964   -2.071789    0.720996
C       0.408212   -0.747263    1.246354
C      -1.101204   -0.755600    1.568845
O      -1.785293   -0.512341    2.518628
C      -1.314367   -0.865510    0.070420
H       1.033702    1.947835   -0.064645
H      -0.518209    1.972516   -0.915951
H      -0.479573    1.945503    0.853542
H      -0.072861   -0.569846   -2.161424
H       1.522440   -0.982975   -1.433674
H      -0.553999   -2.903588   -0.830714
H       1.200899   -0.462717    1.934019
H      -2.248994   -0.700608   -0.458055
