19

O       0.536702    0.091876   -0.892433
C      -0.085141    0.076515    0.385345
C      -1.423406   -0.516643    0.376072
C      -2.548737   -0.953211    0.335972
C      -3.865481   -1.558387    0.276755
C      -4.643831   -1.273625   -1.052673
C      -4.107008   -2.607986   -1.631995
C      -3.800671   -3.069144   -0.181722
O      -2.663434   -3.821537    0.099844
H      -0.065490    0.533918   -1.500091
H       0.582008   -0.504426    1.031630
H      -0.140472    1.088367    0.817746
H      -4.409815   -1.368041    1.206179
H      -5.722810   -1.296301   -0.881989
H      -4.386384   -0.353330   -1.577549
H      -4.781448   -3.224236   -2.229941
H      -3.177175   -2.456631   -2.188509
H      -4.649714   -3.613357    0.242434
H      -1.896516   -3.253025   -0.051131
