18

C      -0.020671    1.406430    0.198308
C       1.478134    1.423842   -0.047612
C       1.345420    0.111066   -0.755567
C       2.008435    0.124536    0.592987
C       0.792555   -0.582626    1.149827
C       0.805076   -2.105500    1.369123
O       0.306559   -1.950936    2.715392
C       0.220407   -0.519323    2.574553
N      -0.010232   -0.094204   -0.036496
H      -0.420673    1.717000    1.170429
H      -0.587358    1.888633   -0.602085
H       2.143068    2.247034   -0.278018
H       1.611952   -0.266381   -1.731632
H       3.056468   -0.006481    0.833066
H       0.108935   -2.655101    0.724778
H       1.789681   -2.589434    1.350195
H       0.829481    0.009326    3.318561
H      -0.815472   -0.158383    2.631640
