18

C       0.024966    1.557447    0.095345
C       0.047391    0.024457    0.070643
N       0.716291   -0.451108    1.274968
C      -1.394334   -0.551038    0.067986
C      -2.202002   -0.102249    1.199142
N      -2.865246    0.256453    2.074122
C       0.720916   -0.481143   -1.251894
C       2.132314   -0.116883   -1.315118
N       3.248735    0.182090   -1.326441
H       1.043595    1.954579    0.054068
H      -0.527734    1.957874   -0.759901
H      -0.446524    1.909131    1.015050
H       0.840061   -1.459570    1.259987
H       1.639986   -0.037510    1.358849
H      -1.908855   -0.270264   -0.857996
H      -1.352310   -1.647133    0.086658
H       0.643617   -1.573690   -1.311377
H       0.209935   -0.074899   -2.132711
