21

C      -0.076900    1.546592    0.101688
C      -0.037571    0.006675    0.060538
C       0.678848   -0.561788    1.300755
C      -1.406518   -0.573707   -0.097183
C      -2.002151   -1.331686   -1.055632
C      -3.348691   -1.565435   -0.617590
C      -3.482483   -0.933973    0.578533
C      -4.603329   -0.787229    1.543580
O      -2.303551   -0.324481    0.907465
H       0.934900    1.956816    0.183044
H      -0.541245    1.953273   -0.801476
H      -0.654865    1.893865    0.963581
H       0.523268   -0.299297   -0.830968
H       0.132625   -0.303030    2.212996
H       0.751103   -1.652114    1.248987
H       1.691279   -0.153325    1.383096
H      -1.539366   -1.682522   -1.965257
H      -4.114809   -2.129580   -1.126844
H      -4.347864   -1.200094    2.526524
H      -4.873739    0.264655    1.692936
H      -5.483669   -1.315526    1.170642
