15

C       0.071903    1.424842    0.138953
N      -0.173289    0.019428   -0.134243
C       0.529421   -0.630266   -1.116444
N       0.679156   -1.946244   -1.084388
O       1.368100   -2.284262   -2.242244
C       1.631496   -1.166654   -2.933743
C       2.364823   -1.257524   -4.203108
O       2.764184   -2.281115   -4.700596
C       1.133763   -0.074919   -2.283228
H       1.106310    1.641150    0.444263
H      -0.158925    2.026600   -0.745675
H      -0.599760    1.747852    0.936800
H      -0.345766   -0.559617    0.674680
H       2.523508   -0.265920   -4.678791
H       1.187500    0.955261   -2.592642
