21

C      -0.090824    1.568711    0.272029
C       0.045117    0.052994    0.055320
C       0.882180   -0.593334    1.165669
C      -1.318781   -0.582776   -0.104388
C      -2.245162   -0.995426    1.030715
C      -1.720809   -2.015024    0.031850
O      -2.521785   -2.339728   -1.077190
C      -2.919525   -1.107077   -1.648171
O      -1.966425   -0.129509   -1.283059
H       0.893652    2.046806    0.298309
H      -0.675074    2.026223   -0.529964
H      -0.594038    1.780989    1.222209
H       0.561014   -0.108980   -0.900646
H       0.434339   -0.433704    2.152573
H       1.003402   -1.670596    1.014794
H       1.880968   -0.147298    1.187114
H      -1.822222   -1.041828    2.028435
H      -3.289013   -0.703380    1.001075
H      -1.075815   -2.832069    0.328148
H      -2.944744   -1.203342   -2.738741
H      -3.918876   -0.823064   -1.278677
