12

C      -0.027794    1.527434   -0.073682
C      -0.022692    0.029836    0.088443
O      -0.038290   -0.572362    1.121617
N       0.003196   -0.699078   -1.149996
N       0.021532   -0.071573   -2.358143
N       0.042178   -0.918555   -3.272376
O       0.038760   -2.205983   -2.715742
C       0.013781   -2.093958   -1.340095
O       0.004514   -2.996135   -0.569604
H       0.859599    1.861814   -0.618006
H      -0.898508    1.852424   -0.649709
H      -0.048101    1.969332    0.921535
