17

O       0.532659   -0.149958    0.619079
C       0.361523    1.043148    0.487488
N       1.143477    1.868111   -0.259689
C       2.346873    1.394188   -0.936477
C       3.526523    2.189195   -0.614017
C       4.490496    2.866124   -0.355776
C       5.659103    3.644900   -0.060395
C       5.957923    4.027071    1.354474
N       6.793023    3.033590    0.677759
H      -0.471923    1.592916    0.966709
H       0.950532    2.856881   -0.261349
H       2.472873    0.352451   -0.623860
H       2.193525    1.384414   -2.024076
H       5.982301    4.320588   -0.848100
H       6.442717    4.979296    1.549997
H       5.258262    3.698854    2.117269
H       6.523138    2.098744    0.975071
