19

C      -0.178966    1.525760    0.095625
C       0.016256    0.005734    0.015735
C       0.701478   -0.414292   -1.295839
C       0.947693   -1.926200   -1.373831
C       1.603572   -2.552674   -0.148587
O       2.043141   -3.679570   -0.155396
C       1.606525   -1.744082    1.122100
O       2.238954   -0.451738    1.052554
C       0.822297   -0.494624    1.201107
H       0.786843    2.041327    0.073418
H      -0.775367    1.887736   -0.747454
H      -0.693124    1.813940    1.018351
H      -0.971492   -0.475982    0.072551
H       0.084578   -0.100480   -2.144328
H       1.653103    0.119598   -1.378015
H      -0.011226   -2.454675   -1.481476
H       1.537721   -2.200763   -2.253231
H       1.836979   -2.317192    2.018099
H       0.469188   -0.193125    2.188648
