18

C      -0.255056    1.361442    0.129648
N      -0.016569   -0.069185    0.039531
C       0.509614   -0.670548   -1.168432
C       0.975864    0.129069   -2.371811
C       2.052805    1.192288   -2.134390
O       2.250049    2.069241   -2.952721
C       2.866543    1.063320   -0.911794
C       2.560042    0.199824    0.070481
C       1.350054   -0.645902    0.079573
H       0.504735    2.005108   -0.333458
H      -1.216681    1.573861   -0.347764
H      -0.331514    1.637101    1.185791
H       0.023649   -1.610610   -1.426158
H       1.406970   -0.574748   -3.096111
H       0.138973    0.609712   -2.889305
H       3.740781    1.704216   -0.857585
H       3.216147    0.117214    0.934090
H       1.409509   -1.533494    0.703860
