18

C      -0.036355    1.511371    0.043547
C       0.019938   -0.016515   -0.025270
C       0.728709   -0.518428   -1.275799
O       0.737654   -1.928743   -1.261577
C       1.374713   -2.496090   -2.386005
C       1.324258   -4.009649   -2.261151
H       0.968244    1.948756    0.051638
H      -0.572424    1.931026   -0.815014
H      -0.549924    1.845510    0.949649
H       0.538602   -0.418068    0.852878
H      -0.992673   -0.435687   -0.007807
H       0.216656   -0.146264   -2.181446
H       1.761591   -0.127702   -1.313289
H       0.874750   -2.167996   -3.313934
H       2.420502   -2.148095   -2.448225
H       1.834199   -4.336365   -1.350400
H       0.287832   -4.356027   -2.215321
H       1.810930   -4.480558   -3.120574
