17

C       0.124670    1.502930    0.041995
C       0.076686    0.049320    0.059173
C       0.047064   -1.154550    0.077183
C       0.034707   -2.595039    0.057028
C      -0.491873   -3.345815    1.263064
N      -1.233831   -3.364117    0.026935
C      -2.483667   -2.615407   -0.036921
C       1.101571   -3.201981   -0.719794
N       1.962911   -3.681727   -1.322454
H       1.109565    1.852384   -0.285534
H      -0.621086    1.917335   -0.644764
H      -0.064247    1.920020    1.036903
H      -0.015225   -4.277436    1.554268
H      -0.844081   -2.716551    2.079092
H      -2.476396   -1.688352    0.552756
H      -2.696232   -2.365117   -1.079501
H      -3.281144   -3.266047    0.332899
