15

O      -0.104071    1.279470   -0.681630
C       0.066280    0.140922    0.145484
C      -1.251127   -0.565225    0.356339
O      -1.742477   -1.318918   -0.766325
C      -1.444497   -2.020919    0.453617
C      -0.359787   -3.066513    0.359806
O      -0.834533   -4.219617   -0.314284
H      -0.479372    0.967144   -1.512727
H       0.813902   -0.547835   -0.269250
H       0.444709    0.512232    1.104187
H      -2.012680    0.067688    0.815756
H      -2.336287   -2.368426    0.978551
H       0.533877   -2.656084   -0.128295
H      -0.074347   -3.394842    1.365248
H      -1.130147   -3.931837   -1.185441
