14

C       0.138394    1.513692    0.045551
C      -0.046905    0.043097   -0.034812
C      -1.110983   -0.801938    0.001204
C      -2.566225   -0.506542    0.145413
N      -0.648351   -2.115344   -0.124548
C       0.631491   -1.995539   -0.226390
O       1.086725   -0.724497   -0.182229
H       0.766250    1.794233    0.898849
H       0.616410    1.909036   -0.857899
H      -0.829257    2.006750    0.160328
H      -3.128043   -0.881872   -0.716529
H      -2.977458   -0.994984    1.035259
H      -2.749869    0.567487    0.230655
H       1.371472   -2.772383   -0.340740
