27

C       0.004971    1.484778   -0.031798
O      -0.000677    0.079755    0.005350
C       0.636083   -0.502329   -1.111885
C       0.575767   -2.018457   -0.975893
C       1.250149   -2.726377   -2.157113
C       1.254492   -4.276257   -2.136539
C      -0.182329   -4.830260   -2.141074
C       1.976863   -4.761349   -3.407608
C       2.009382   -4.807786   -0.904063
H       1.029317    1.891701   -0.041269
H      -0.522912    1.874773   -0.917351
H      -0.505983    1.840246    0.866630
H       0.141520   -0.179192   -2.045430
H       1.685425   -0.162459   -1.174225
H       1.054152   -2.294095   -0.029868
H      -0.476694   -2.310690   -0.893881
H       0.765464   -2.399873   -3.088091
H       2.292438   -2.384090   -2.225801
H      -0.749148   -4.452638   -2.999761
H      -0.174139   -5.923999   -2.204493
H      -0.729611   -4.560067   -1.232865
H       3.008791   -4.394425   -3.441537
H       2.010449   -5.855621   -3.447444
H       1.467156   -4.410072   -4.311749
H       1.510404   -4.537240    0.031450
H       2.076597   -5.900910   -0.934339
H       3.031392   -4.413749   -0.865874
