18

C       0.047300    1.599802    0.043443
C      -0.013348    0.070088   -0.004918
C       0.646267   -0.497433   -1.266664
C       0.687115   -2.044602   -1.312134
C      -0.705406   -2.700485   -1.399199
C       1.518404   -2.484958   -2.438584
N       2.167039   -2.822929   -3.333772
H       1.083063    1.955825    0.029246
H      -0.466488    2.043143   -0.816438
H      -0.426801    1.986396    0.950457
H       0.483848   -0.345575    0.881740
H      -1.059803   -0.251033    0.050994
H       0.124781   -0.132017   -2.160180
H       1.673664   -0.121847   -1.335425
H       1.182765   -2.400400   -0.398736
H      -0.619879   -3.787991   -1.462199
H      -1.297944   -2.455928   -0.514801
H      -1.242379   -2.349108   -2.285164
