17

O       0.121286    1.392088   -0.082146
C       0.037260   -0.013383    0.121680
C      -1.373236   -0.507940    0.061614
C      -2.068392   -1.847585   -0.051425
O      -2.986275   -1.590251    1.008290
C      -2.553697   -0.190678    1.015738
C      -3.539624    0.580415    0.155467
O      -3.436547   -0.047527   -1.133483
C      -2.244763   -0.793707   -1.134336
H      -0.244208    1.580951   -0.953217
H       0.655316   -0.568529   -0.601725
H       0.467144   -0.189324    1.113877
H      -1.703224   -2.859878   -0.186462
H      -2.361035    0.188181    2.019915
H      -4.568827    0.479537    0.510720
H      -3.271284    1.646224    0.091495
H      -1.826674   -0.959530   -2.121088
