18

C      -0.046893    1.556995    0.008309
C       0.029013    0.030309   -0.010266
C       0.697811   -0.507724   -1.282819
N       0.981723   -1.936567   -1.225346
C       1.871560   -2.252297   -0.109729
C       1.586792   -1.548833    1.221029
O       2.093367   -1.918172    2.264491
N       0.770076   -0.454253    1.152789
H       0.954981    1.994823   -0.044184
H      -0.632965    1.922087   -0.840822
H      -0.528721    1.917583    0.923512
H      -0.999871   -0.367296    0.021636
H       0.057151   -0.296521   -2.145028
H       1.647330    0.020828   -1.442691
H       0.110967   -2.448701   -1.120288
H       1.867657   -3.327693    0.082187
H       2.902603   -1.991569   -0.386163
H       0.575583   -0.032399    2.051207
