15

N      -0.070753    1.462001    0.077630
C      -0.106961    0.031401    0.006853
C      -1.367633   -0.774881    0.042415
O      -1.664326   -1.764954    0.939291
C      -2.432512   -0.155657   -0.850272
O      -1.497606   -0.041684   -1.962768
C      -0.494358   -0.765253   -1.245786
C       0.305556   -1.733473   -1.906805
N       0.982968   -2.526988   -2.410617
H       0.867097    1.790073   -0.135205
H      -0.675070    1.849449   -0.642906
H       0.695788   -0.453173    0.559496
H      -1.233864   -1.573065    1.778864
H      -3.231077   -0.863506   -1.092565
H      -2.854234    0.810236   -0.553282
