17

C      -0.011449    1.499142    0.010229
C       0.010136    0.047544    0.002221
C       0.029054   -1.162667   -0.004464
C       0.049227   -2.522605   -0.011966
C       0.072837   -3.733358   -0.018698
C       0.067173   -5.187108   -0.026455
C      -1.371478   -5.774706   -0.015878
C      -1.368498   -7.231216   -0.023731
C      -1.331025   -8.432506   -0.030544
H       1.004430    1.910282    0.002725
H      -0.536084    1.893281   -0.867551
H      -0.519162    1.883771    0.902067
H       0.596572   -5.562041   -0.910639
H       0.613318   -5.571466    0.843380
H      -1.901420   -5.403281    0.868437
H      -1.918168   -5.393856   -0.885874
H      -1.315953   -9.494160   -0.036392
