19

C      -0.079681    1.685064    0.519282
C      -0.113896    0.179068    0.342890
C       1.070083   -0.521622   -0.386835
O       1.941762   -0.211899    0.780404
C       0.673202   -0.708350    1.346320
C       0.727275   -1.870265    0.292108
C      -0.488665   -2.695163   -0.074880
C      -0.649619   -3.991865    0.698505
O      -1.275862   -2.359533   -0.932891
H       0.923672    2.022139    0.786416
H      -0.384348    2.187479   -0.404883
H      -0.775381    1.998636    1.305182
H      -1.099672   -0.191188    0.059430
H       1.479822   -0.346569   -1.381562
H       0.601424   -0.783025    2.432815
H       1.605556   -2.498595    0.462218
H      -0.588400   -3.811471    1.777600
H      -1.603606   -4.457731    0.449189
H       0.167391   -4.678425    0.447112
