17

O      -0.035713    1.415414    0.069796
C       0.037878    0.047147    0.012307
C      -0.868797   -0.796552    0.808857
C       0.641850   -0.977424    1.044592
C       1.261142   -1.702262   -0.112796
O       2.063165   -2.591119   -0.216513
C       0.644684   -0.754696   -1.131166
C       0.148853   -1.036420   -2.520487
C       1.393644   -0.212465   -2.319196
H       0.828278    1.774260   -0.165853
H      -1.356980   -0.287000    1.634283
H      -1.457164   -1.586226    0.350064
H       1.065916   -0.838593    2.030962
H       0.263473   -2.050663   -2.888597
H      -0.751086   -0.526559   -2.848114
H       1.327154    0.854424   -2.511823
H       2.355791   -0.661504   -2.541768
