17

C       0.017384    1.460990    0.009941
O       1.172801    0.585757   -0.006466
C      -0.101760    0.010743    0.003040
C      -0.599928   -0.926888    1.135519
C      -2.067080   -0.978783    0.685132
C      -2.080406   -0.971350   -0.650701
C      -0.622525   -0.914251   -1.129665
C       0.084869   -2.202771   -0.678084
C       0.098154   -2.210222    0.655566
H      -0.124897    2.018924    0.934279
H      -0.143244    2.029185   -0.905092
H      -0.411578   -0.622125    2.163960
H      -2.910122   -1.019710    1.361198
H      -2.936773   -1.004839   -1.310227
H      -0.454701   -0.598011   -2.158195
H       0.463543   -2.955540   -1.355451
H       0.490168   -2.970467    1.316803
