17

C      -1.555529   -0.316614    0.155865
C      -0.076905    0.105714    0.071862
C       0.739144   -0.413557    1.275497
C       2.172553    0.149868    1.297804
O       2.201610    1.566047    1.325819
C       2.928299   -0.422720    2.428313
N       3.491298   -0.849146    3.342751
C       0.524070   -0.355429   -1.185134
N       1.009258   -0.733308   -2.163959
H      -2.003030    0.081546    1.070764
H      -2.118422    0.065061   -0.698925
H      -1.651076   -1.405880    0.169502
H      -0.012106    1.199753    0.073007
H       0.225725   -0.119704    2.198268
H       0.779142   -1.507687    1.261665
H       2.682791   -0.132419    0.369854
H       1.919348    1.861686    2.199448
