17

C       0.436388    0.628691   -0.641668
C       0.042592   -0.030205    0.678849
O      -0.204551    0.959872    1.681217
C      -1.137672   -0.996125    0.634002
C      -2.247447   -0.937213   -0.404476
C      -1.312296   -2.120054   -0.344498
O      -0.337513   -2.297515   -1.334533
H       1.299303    1.278195   -0.472987
H       0.683648   -0.119913   -1.396041
H      -0.380187    1.251084   -1.028007
H       0.907716   -0.583527    1.064070
H      -0.964399    1.475313    1.387643
H      -1.461974   -1.236893    1.642828
H      -3.278128   -1.057224   -0.088032
H      -2.107505   -0.264996   -1.244255
H      -1.709029   -3.053098    0.056042
H      -0.782886   -2.578342   -2.140608
