20

O       0.002620    1.415822    0.040334
C       0.044228   -0.000393   -0.002371
C      -1.362340   -0.597769    0.071350
N      -2.309348   -0.044513   -0.923776
C      -1.802637   -1.422912   -1.081857
C      -0.742076   -1.673853   -2.148307
C      -0.036890   -0.347470   -2.536588
C       0.801496   -0.524146   -1.240090
C       0.575788   -2.057303   -1.404125
H      -0.741720    1.668587   -0.521454
H       0.599052   -0.313526    0.890829
H      -1.752011   -0.808462    1.063050
H      -3.252454   -0.057273   -0.545861
H      -2.499243   -2.236570   -0.894522
H      -1.108264   -2.324407   -2.945668
H       0.583044   -0.482411   -3.426575
H      -0.654015    0.543741   -2.649706
H       1.824433   -0.142099   -1.232475
H       0.490702   -2.670071   -0.500583
H       1.312716   -2.502846   -2.077112
