21

C       0.075561    1.448178   -0.030989
C       0.068278   -0.008054   -0.055442
C       0.069004   -1.212624   -0.064771
C       0.052143   -2.675023   -0.101128
C      -1.317582   -3.218657    0.353751
C       0.458927   -3.179183   -1.510557
C       0.644647   -4.675548   -1.578765
C       1.768287   -5.289367   -2.297621
O       1.774085   -5.204139   -0.872160
H       0.827908    1.831852    0.667220
H       0.301318    1.863242   -1.019692
H      -0.896587    1.847158    0.279629
H       0.814228   -3.047461    0.596761
H      -2.105907   -2.912587   -0.341675
H      -1.309442   -4.310854    0.411379
H      -1.573045   -2.830255    1.342796
H      -0.302894   -2.873135   -2.238631
H       1.395062   -2.690466   -1.797896
H      -0.257568   -5.278131   -1.464838
H       1.669334   -6.294172   -2.706507
H       2.489184   -4.650848   -2.807045
