18

C      -0.083601    1.466696    0.294475
C       0.076057   -0.023468    0.111980
O      -1.081473   -0.699316   -0.300842
C       1.410558   -0.601438   -0.340176
C       0.912055   -0.827699    1.059115
O       1.641111   -0.169031    2.072459
C       1.075693   -0.204064    3.314435
N       1.847531    0.516861    4.182634
O       0.045668   -0.767302    3.588957
H       0.820076    1.914052    0.714589
H      -0.290600    1.955668   -0.664969
H      -0.919722    1.671668    0.970101
H      -1.257314   -0.450496   -1.215395
H       1.398154   -1.449765   -1.015039
H       2.241930    0.084201   -0.464284
H       0.535011   -1.801930    1.345146
H       2.791380    0.741188    3.916674
H       1.655370    0.378544    5.159937
