21

C      -0.032251    1.491718    0.043431
C       0.018918   -0.007923   -0.043345
C       0.209152   -0.768567   -1.351712
C       0.081436   -2.191302   -0.750742
C       0.036271   -3.378214   -1.678233
C       1.151968   -2.154778    0.371901
C       0.624239   -0.900778    1.051676
C      -0.862064   -0.933645    0.765458
O      -1.148925   -2.087549    0.002797
H       0.919467    1.945402   -0.257569
H      -0.815562    1.901637   -0.604893
H      -0.243072    1.822790    1.066038
H      -0.583133   -0.562271   -2.078857
H       1.183420   -0.597643   -1.820499
H       0.967604   -3.454861   -2.247199
H      -0.099548   -4.304502   -1.112304
H      -0.793331   -3.284414   -2.385083
H       1.100290   -3.043047    1.009074
H       2.166750   -2.050766   -0.023455
H       1.036409   -0.493649    1.965869
H      -1.647632   -0.625738    1.442003
