19

C       0.218120    1.497649    0.233026
C      -0.149498    0.035054   -0.056216
C       0.522422   -0.501872   -1.289828
C       1.989220   -0.978481   -1.293437
C       0.973300   -1.940002   -1.770148
O       0.715229   -3.178843   -1.230976
C       0.569978   -1.631782   -3.210722
C       0.107079   -0.240156   -2.700198
O      -0.538925    0.635203   -3.210491
H       1.294373    1.609276    0.401861
H      -0.058398    2.132606   -0.613297
H      -0.303867    1.864515    1.122062
H       0.112085   -0.597715    0.802069
H      -1.235604   -0.048139   -0.181304
H       2.733292   -0.545441   -1.958911
H       2.356256   -1.148770   -0.282431
H       1.314193   -3.335658   -0.494762
H       1.347964   -1.680142   -3.979126
H      -0.299030   -2.212811   -3.533412
