none
     RDKit          3D

 12 11  0  0  0  0  0  0  0  0999 V2000
    2.9134   -1.3958   -0.1697 O   0  0  0  0  0  0  0  0  0  0  0  0
    1.8821   -0.7692    0.0376 C   0  0  0  0  0  0  0  0  0  0  0  0
    0.7111   -1.3392    0.3760 O   0  0  0  0  0  0  0  0  0  0  0  0
   -0.3116   -0.3514    0.5475 C   0  0  0  0  0  0  0  0  0  0  0  0
   -1.4771   -0.7481   -0.3523 C   0  0  0  0  0  0  0  0  0  0  0  0
   -1.7724   -2.1216   -0.1565 O   0  0  0  0  0  0  0  0  0  0  0  0
   -0.6144   -0.3915    1.5951 H   0  0  0  0  0  0  0  0  0  0  0  0
   -1.2150   -0.6156   -1.4056 H   0  0  0  0  0  0  0  0  0  0  0  0
   -0.9132   -2.5891   -0.1336 H   0  0  0  0  0  0  0  0  0  0  0  0
    1.8568    0.3273   -0.0375 H   0  0  0  0  0  0  0  0  0  0  0  0
   -0.0042    0.6847    0.3217 H   0  0  0  0  0  0  0  0  0  0  0  0
   -2.3687   -0.1530   -0.1326 H   0  0  0  0  0  0  0  0  0  0  0  0
  1  2  2  0
  2  3  1  0
  3  4  1  0
  4  5  1  0
  5  6  1  0
  2 10  1  0
  4  7  1  0
  4 11  1  0
  5  8  1  0
  5 12  1  0
  6  9  1  0
M  END
