none
     RDKit          3D

 16 16  0  0  0  0  0  0  0  0999 V2000
    2.9083   -1.3872   -0.1687 O   0  0  0  0  0  0  0  0  0  0  0  0
    1.8823   -0.7704    0.0368 C   0  0  0  0  0  0  0  0  0  0  0  0
    0.7043   -1.3528    0.3796 O   0  0  0  0  0  0  0  0  0  0  0  0
   -0.3004   -0.3423    0.5455 C   0  0  0  0  0  0  0  0  0  0  0  0
   -1.4814   -0.7517   -0.3524 C   0  0  0  0  0  0  0  0  0  0  0  0
   -2.7817   -0.0391   -0.0110 C   0  0  0  0  0  0  0  0  0  0  0  0
    0.4118    0.9453    0.2271 C   0  0  0  0  0  0  0  0  0  0  0  0
    1.6935    0.6778   -0.0413 C   0  0  0  0  0  0  0  0  0  0  0  0
   -0.6058   -0.3511    1.5984 H   0  0  0  0  0  0  0  0  0  0  0  0
   -1.2296   -0.5734   -1.4052 H   0  0  0  0  0  0  0  0  0  0  0  0
   -3.5863   -0.3797   -0.6716 H   0  0  0  0  0  0  0  0  0  0  0  0
   -3.0810   -0.2455    1.0219 H   0  0  0  0  0  0  0  0  0  0  0  0
   -1.6449   -1.8349   -0.2651 H   0  0  0  0  0  0  0  0  0  0  0  0
   -2.6793    1.0431   -0.1305 H   0  0  0  0  0  0  0  0  0  0  0  0
   -0.0429    1.9300    0.2445 H   0  0  0  0  0  0  0  0  0  0  0  0
    2.4865    1.3575   -0.2959 H   0  0  0  0  0  0  0  0  0  0  0  0
  1  2  2  0
  2  3  1  0
  2  8  1  0
  3  4  1  0
  4  5  1  0
  4  7  1  0
  5  6  1  0
  7  8  2  0
  4  9  1  0
  5 10  1  0
  5 13  1  0
  6 11  1  0
  6 12  1  0
  6 14  1  0
  7 15  1  0
  8 16  1  0
M  END
