none
     RDKit          3D

 11 10  0  0  0  0  0  0  0  0999 V2000
   -0.3100   -0.3380    0.5477 C   0  0  0  0  0  0  0  0  0  0  0  0
    0.4210    0.9373    0.2282 C   0  0  0  0  0  0  0  0  0  0  0  0
   -0.1674    2.1582    0.3000 O   0  0  0  0  0  0  0  0  0  0  0  0
    1.6996    0.6735   -0.0428 C   0  0  0  0  0  0  0  0  0  0  0  0
    2.7146    1.5033   -0.3581 O   0  0  0  0  0  0  0  0  0  0  0  0
   -0.7296   -0.2770    1.5538 H   0  0  0  0  0  0  0  0  0  0  0  0
   -1.0977    2.0390    0.5470 H   0  0  0  0  0  0  0  0  0  0  0  0
    3.5266    0.9801   -0.4885 H   0  0  0  0  0  0  0  0  0  0  0  0
    0.3020   -1.2546    0.5095 H   0  0  0  0  0  0  0  0  0  0  0  0
   -1.1329   -0.4736   -0.1566 H   0  0  0  0  0  0  0  0  0  0  0  0
    2.0751   -0.3464   -0.0452 H   0  0  0  0  0  0  0  0  0  0  0  0
  1  2  1  0
  2  3  1  0
  2  4  2  0
  4  5  1  0
  1  6  1  0
  1  9  1  0
  1 10  1  0
  3  7  1  0
  4 11  1  0
  5  8  1  0
M  END
