none
     RDKit          3D

 14 14  0  0  0  0  0  0  0  0999 V2000
    2.9155   -1.3864   -0.1705 O   0  0  0  0  0  0  0  0  0  0  0  0
    1.8722   -0.7793    0.0406 C   0  0  0  0  0  0  0  0  0  0  0  0
    0.7042   -1.3523    0.3808 O   0  0  0  0  0  0  0  0  0  0  0  0
   -0.3004   -0.3406    0.5430 C   0  0  0  0  0  0  0  0  0  0  0  0
   -1.4773   -0.7457   -0.3506 C   0  0  0  0  0  0  0  0  0  0  0  0
    0.4149    0.9414    0.2251 C   0  0  0  0  0  0  0  0  0  0  0  0
    1.6902    0.6722   -0.0406 C   0  0  0  0  0  0  0  0  0  0  0  0
    2.7157    1.5059   -0.3590 O   0  0  0  0  0  0  0  0  0  0  0  0
   -0.6183   -0.3440    1.5939 H   0  0  0  0  0  0  0  0  0  0  0  0
   -1.1688   -0.8237   -1.4001 H   0  0  0  0  0  0  0  0  0  0  0  0
    3.4985    0.9265   -0.4990 H   0  0  0  0  0  0  0  0  0  0  0  0
   -1.8573   -1.7389   -0.0619 H   0  0  0  0  0  0  0  0  0  0  0  0
   -2.2952   -0.0249   -0.2787 H   0  0  0  0  0  0  0  0  0  0  0  0
   -0.0332    1.9341    0.2432 H   0  0  0  0  0  0  0  0  0  0  0  0
  1  2  2  0
  2  3  1  0
  2  7  1  0
  3  4  1  0
  4  5  1  0
  4  6  1  0
  6  7  2  0
  7  8  1  0
  4  9  1  0
  5 10  1  0
  5 12  1  0
  5 13  1  0
  6 14  1  0
  8 11  1  0
M  END
