none
     RDKit          3D

 15 14  0  0  0  0  0  0  0  0999 V2000
   -0.3290   -0.3545    0.5617 C   0  0  0  0  0  0  0  0  0  0  0  0
   -1.4826   -0.7480   -0.3536 C   0  0  0  0  0  0  0  0  0  0  0  0
   -2.7802   -0.0369   -0.0125 C   0  0  0  0  0  0  0  0  0  0  0  0
    0.4095    0.9125    0.2207 C   0  0  0  0  0  0  0  0  0  0  0  0
    1.7183    0.6962   -0.0507 C   0  0  0  0  0  0  0  0  0  0  0  0
   -0.6730   -0.2594    1.5905 H   0  0  0  0  0  0  0  0  0  0  0  0
   -1.2275   -0.5792   -1.4066 H   0  0  0  0  0  0  0  0  0  0  0  0
   -3.5854   -0.3810   -0.6699 H   0  0  0  0  0  0  0  0  0  0  0  0
   -3.0812   -0.2430    1.0214 H   0  0  0  0  0  0  0  0  0  0  0  0
    0.3706   -1.2005    0.5702 H   0  0  0  0  0  0  0  0  0  0  0  0
   -1.6498   -1.8282   -0.2394 H   0  0  0  0  0  0  0  0  0  0  0  0
   -2.6801    1.0446   -0.1330 H   0  0  0  0  0  0  0  0  0  0  0  0
   -0.0402    1.9039    0.2275 H   0  0  0  0  0  0  0  0  0  0  0  0
    2.1444   -0.2956   -0.0385 H   0  0  0  0  0  0  0  0  0  0  0  0
    2.3787    1.5136   -0.2953 H   0  0  0  0  0  0  0  0  0  0  0  0
  1  2  1  0
  1  4  1  0
  2  3  1  0
  4  5  2  3
  1  6  1  0
  1 10  1  0
  2  7  1  0
  2 11  1  0
  3  8  1  0
  3  9  1  0
  3 12  1  0
  4 13  1  0
  5 14  1  0
  5 15  1  0
M  END
