none
     RDKit          3D

 13 12  0  0  0  0  0  0  0  0999 V2000
    0.7196   -1.3335    0.3870 O   0  0  0  0  0  0  0  0  0  0  0  0
   -0.3220   -0.3637    0.5333 C   0  0  0  0  0  0  0  0  0  0  0  0
   -1.4992   -0.7730   -0.3569 C   0  0  0  0  0  0  0  0  0  0  0  0
   -1.7509   -2.1706   -0.1690 O   0  0  0  0  0  0  0  0  0  0  0  0
   -2.7694   -0.0203   -0.0034 C   0  0  0  0  0  0  0  0  0  0  0  0
   -0.6145   -0.3650    1.5886 H   0  0  0  0  0  0  0  0  0  0  0  0
   -1.2412   -0.6325   -1.4118 H   0  0  0  0  0  0  0  0  0  0  0  0
   -0.8598   -2.5748   -0.1213 H   0  0  0  0  0  0  0  0  0  0  0  0
   -3.5972   -0.3478   -0.6417 H   0  0  0  0  0  0  0  0  0  0  0  0
   -3.0729   -0.2207    1.0301 H   0  0  0  0  0  0  0  0  0  0  0  0
    1.4416   -1.0594    0.9800 H   0  0  0  0  0  0  0  0  0  0  0  0
    0.0565    0.6267    0.2637 H   0  0  0  0  0  0  0  0  0  0  0  0
   -2.6382    1.0587   -0.1284 H   0  0  0  0  0  0  0  0  0  0  0  0
  1  2  1  0
  2  3  1  0
  3  4  1  0
  3  5  1  0
  1 11  1  0
  2  6  1  0
  2 12  1  0
  3  7  1  0
  4  8  1  0
  5  9  1  0
  5 10  1  0
  5 13  1  0
M  END
