none
     RDKit          3D

  8  7  0  0  0  0  0  0  0  0999 V2000
    3.0119   -1.3008   -0.1940 O   0  0  0  0  0  0  0  0  0  0  0  0
    1.8954   -0.8618    0.0503 C   0  0  0  0  0  0  0  0  0  0  0  0
    1.6078    0.5843   -0.0191 C   0  0  0  0  0  0  0  0  0  0  0  0
    0.3780    1.0505    0.2232 C   0  0  0  0  0  0  0  0  0  0  0  0
    1.0528   -1.5164    0.3284 H   0  0  0  0  0  0  0  0  0  0  0  0
    2.4375    1.2315   -0.2780 H   0  0  0  0  0  0  0  0  0  0  0  0
   -0.4531    0.4011    0.4800 H   0  0  0  0  0  0  0  0  0  0  0  0
    0.1767    2.1163    0.1670 H   0  0  0  0  0  0  0  0  0  0  0  0
  1  2  2  0
  2  3  1  0
  3  4  2  3
  2  5  1  0
  3  6  1  0
  4  7  1  0
  4  8  1  0
M  END
