none
     RDKit          3D

 15 14  0  0  0  0  0  0  0  0999 V2000
    2.9267   -1.4052   -0.1720 O   0  0  0  0  0  0  0  0  0  0  0  0
    1.8730   -0.7705    0.0394 C   0  0  0  0  0  0  0  0  0  0  0  0
    0.7169   -1.3197    0.3740 O   0  0  0  0  0  0  0  0  0  0  0  0
   -0.3271   -0.3599    0.5467 C   0  0  0  0  0  0  0  0  0  0  0  0
   -1.4819   -0.7561   -0.3483 C   0  0  0  0  0  0  0  0  0  0  0  0
   -2.7793   -0.0365   -0.0129 C   0  0  0  0  0  0  0  0  0  0  0  0
   -2.6515    1.3444   -0.3028 O   0  0  0  0  0  0  0  0  0  0  0  0
   -0.6069   -0.3739    1.5979 H   0  0  0  0  0  0  0  0  0  0  0  0
   -1.2049   -0.5597   -1.3959 H   0  0  0  0  0  0  0  0  0  0  0  0
   -3.6001   -0.4432   -0.6172 H   0  0  0  0  0  0  0  0  0  0  0  0
   -3.0360   -0.1571    1.0471 H   0  0  0  0  0  0  0  0  0  0  0  0
   -3.5268    1.7507   -0.1598 H   0  0  0  0  0  0  0  0  0  0  0  0
    1.8561    0.3270   -0.0404 H   0  0  0  0  0  0  0  0  0  0  0  0
    0.0024    0.6817    0.3144 H   0  0  0  0  0  0  0  0  0  0  0  0
   -1.6409   -1.8362   -0.2691 H   0  0  0  0  0  0  0  0  0  0  0  0
  1  2  2  0
  2  3  1  0
  3  4  1  0
  4  5  1  0
  5  6  1  0
  6  7  1  0
  2 13  1  0
  4  8  1  0
  4 14  1  0
  5  9  1  0
  5 15  1  0
  6 10  1  0
  6 11  1  0
  7 12  1  0
M  END
