none
     RDKit          3D

 17 16  0  0  0  0  0  0  0  0999 V2000
   -0.3223   -0.3442    0.5558 C   0  0  0  0  0  0  0  0  0  0  0  0
   -1.4813   -0.7508   -0.3538 C   0  0  0  0  0  0  0  0  0  0  0  0
   -2.7823   -0.0389   -0.0128 C   0  0  0  0  0  0  0  0  0  0  0  0
   -2.6540    1.3481   -0.3025 O   0  0  0  0  0  0  0  0  0  0  0  0
    0.4206    0.9128    0.2273 C   0  0  0  0  0  0  0  0  0  0  0  0
   -0.1651    2.1526    0.2973 O   0  0  0  0  0  0  0  0  0  0  0  0
    1.7113    0.6980   -0.0478 C   0  0  0  0  0  0  0  0  0  0  0  0
   -0.6662   -0.2663    1.5852 H   0  0  0  0  0  0  0  0  0  0  0  0
   -1.2169   -0.5728   -1.4018 H   0  0  0  0  0  0  0  0  0  0  0  0
   -3.5985   -0.4453   -0.6187 H   0  0  0  0  0  0  0  0  0  0  0  0
   -3.0398   -0.1561    1.0457 H   0  0  0  0  0  0  0  0  0  0  0  0
   -3.5537    1.7218   -0.2682 H   0  0  0  0  0  0  0  0  0  0  0  0
   -1.1300    2.0157    0.1482 H   0  0  0  0  0  0  0  0  0  0  0  0
    0.3764   -1.2035    0.5653 H   0  0  0  0  0  0  0  0  0  0  0  0
   -1.6475   -1.8306   -0.2360 H   0  0  0  0  0  0  0  0  0  0  0  0
    2.1421   -0.3040   -0.0689 H   0  0  0  0  0  0  0  0  0  0  0  0
    2.3688    1.5135   -0.2596 H   0  0  0  0  0  0  0  0  0  0  0  0
  1  2  1  0
  1  5  1  0
  2  3  1  0
  3  4  1  0
  5  6  1  0
  5  7  2  3
  1  8  1  0
  1 14  1  0
  2  9  1  0
  2 15  1  0
  3 10  1  0
  3 11  1  0
  4 12  1  0
  6 13  1  0
  7 16  1  0
  7 17  1  0
M  END
