none
     RDKit          3D

  8  7  0  0  0  0  0  0  0  0999 V2000
    2.9183   -1.4015   -0.1704 O   0  0  0  0  0  0  0  0  0  0  0  0
    1.8951   -0.7750    0.0344 C   0  0  0  0  0  0  0  0  0  0  0  0
    0.7060   -1.3138    0.3750 O   0  0  0  0  0  0  0  0  0  0  0  0
   -0.3150   -0.3513    0.5503 C   0  0  0  0  0  0  0  0  0  0  0  0
   -0.0335    0.3383    1.3530 H   0  0  0  0  0  0  0  0  0  0  0  0
    1.8328    0.3256   -0.0408 H   0  0  0  0  0  0  0  0  0  0  0  0
   -1.2409   -0.8518    0.8226 H   0  0  0  0  0  0  0  0  0  0  0  0
   -0.4672    0.1957   -0.3855 H   0  0  0  0  0  0  0  0  0  0  0  0
  1  2  2  0
  2  3  1  0
  3  4  1  0
  2  6  1  0
  4  5  1  0
  4  7  1  0
  4  8  1  0
M  END
