none
     RDKit          3D

 17 16  0  0  0  0  0  0  0  0999 V2000
   -0.3102   -0.3418    0.5514 C   0  0  0  0  0  0  0  0  0  0  0  0
   -1.4813   -0.7519   -0.3531 C   0  0  0  0  0  0  0  0  0  0  0  0
   -2.7826   -0.0397   -0.0115 C   0  0  0  0  0  0  0  0  0  0  0  0
    0.4192    0.9375    0.2264 C   0  0  0  0  0  0  0  0  0  0  0  0
   -0.1671    2.1587    0.3002 O   0  0  0  0  0  0  0  0  0  0  0  0
    1.6997    0.6738   -0.0446 C   0  0  0  0  0  0  0  0  0  0  0  0
    2.7149    1.5038   -0.3574 O   0  0  0  0  0  0  0  0  0  0  0  0
   -0.6677   -0.2618    1.5817 H   0  0  0  0  0  0  0  0  0  0  0  0
   -1.2302   -0.5889   -1.4070 H   0  0  0  0  0  0  0  0  0  0  0  0
   -3.6010   -0.4454   -0.6151 H   0  0  0  0  0  0  0  0  0  0  0  0
   -3.0423   -0.1757    1.0435 H   0  0  0  0  0  0  0  0  0  0  0  0
   -1.0432    2.0615    0.7061 H   0  0  0  0  0  0  0  0  0  0  0  0
    3.5195    0.9779   -0.5206 H   0  0  0  0  0  0  0  0  0  0  0  0
    0.3723   -1.2101    0.5739 H   0  0  0  0  0  0  0  0  0  0  0  0
   -1.6499   -1.8306   -0.2306 H   0  0  0  0  0  0  0  0  0  0  0  0
   -2.7183    1.0314   -0.2196 H   0  0  0  0  0  0  0  0  0  0  0  0
    2.0791   -0.3449   -0.0527 H   0  0  0  0  0  0  0  0  0  0  0  0
  1  2  1  0
  1  4  1  0
  2  3  1  0
  4  5  1  0
  4  6  2  0
  6  7  1  0
  1  8  1  0
  1 14  1  0
  2  9  1  0
  2 15  1  0
  3 10  1  0
  3 11  1  0
  3 16  1  0
  5 12  1  0
  6 17  1  0
  7 13  1  0
M  END
