none
     RDKit          3D

 16 15  0  0  0  0  0  0  0  0999 V2000
   -0.3097   -0.3423    0.5522 C   0  0  0  0  0  0  0  0  0  0  0  0
   -1.4811   -0.7516   -0.3534 C   0  0  0  0  0  0  0  0  0  0  0  0
   -2.7820   -0.0390   -0.0111 C   0  0  0  0  0  0  0  0  0  0  0  0
    0.4170    0.9428    0.2242 C   0  0  0  0  0  0  0  0  0  0  0  0
    1.6998    0.6720   -0.0439 C   0  0  0  0  0  0  0  0  0  0  0  0
    2.7137    1.5046   -0.3570 O   0  0  0  0  0  0  0  0  0  0  0  0
   -0.6711   -0.2542    1.5793 H   0  0  0  0  0  0  0  0  0  0  0  0
   -1.2285   -0.5801   -1.4053 H   0  0  0  0  0  0  0  0  0  0  0  0
   -3.5864   -0.3809   -0.6710 H   0  0  0  0  0  0  0  0  0  0  0  0
   -3.0821   -0.2438    1.0219 H   0  0  0  0  0  0  0  0  0  0  0  0
    3.5243    0.9763   -0.4942 H   0  0  0  0  0  0  0  0  0  0  0  0
    0.3719   -1.2105    0.5781 H   0  0  0  0  0  0  0  0  0  0  0  0
   -1.6503   -1.8309   -0.2389 H   0  0  0  0  0  0  0  0  0  0  0  0
   -2.6799    1.0430   -0.1322 H   0  0  0  0  0  0  0  0  0  0  0  0
   -0.0317    1.9340    0.2323 H   0  0  0  0  0  0  0  0  0  0  0  0
    2.0852   -0.3442   -0.0283 H   0  0  0  0  0  0  0  0  0  0  0  0
  1  2  1  0
  1  4  1  0
  2  3  1  0
  4  5  2  0
  5  6  1  0
  1  7  1  0
  1 12  1  0
  2  8  1  0
  2 13  1  0
  3  9  1  0
  3 10  1  0
  3 14  1  0
  4 15  1  0
  5 16  1  0
  6 11  1  0
M  END
