none
     RDKit          3D

 13 12  0  0  0  0  0  0  0  0999 V2000
   -0.3432   -0.3596    0.5641 C   0  0  0  0  0  0  0  0  0  0  0  0
   -1.4797   -0.7384   -0.3519 C   0  0  0  0  0  0  0  0  0  0  0  0
    0.4234    0.8825    0.2301 C   0  0  0  0  0  0  0  0  0  0  0  0
   -0.1587    2.1343    0.2914 O   0  0  0  0  0  0  0  0  0  0  0  0
    1.7230    0.7075   -0.0574 C   0  0  0  0  0  0  0  0  0  0  0  0
   -0.7113   -0.2332    1.5801 H   0  0  0  0  0  0  0  0  0  0  0  0
   -1.1374   -0.9230   -1.3781 H   0  0  0  0  0  0  0  0  0  0  0  0
   -1.0939    2.0372    0.5628 H   0  0  0  0  0  0  0  0  0  0  0  0
    0.3544   -1.2058    0.6087 H   0  0  0  0  0  0  0  0  0  0  0  0
   -1.9386   -1.6672    0.0149 H   0  0  0  0  0  0  0  0  0  0  0  0
   -2.2481    0.0321   -0.3733 H   0  0  0  0  0  0  0  0  0  0  0  0
    2.1397   -0.2931   -0.0708 H   0  0  0  0  0  0  0  0  0  0  0  0
    2.3817    1.5300   -0.2663 H   0  0  0  0  0  0  0  0  0  0  0  0
  1  2  1  0
  1  3  1  0
  3  4  1  0
  3  5  2  3
  1  6  1  0
  1  9  1  0
  2  7  1  0
  2 10  1  0
  2 11  1  0
  4  8  1  0
  5 12  1  0
  5 13  1  0
M  END
