none
     RDKit          3D

  5  4  0  0  0  0  0  0  0  0999 V2000
    2.9079   -1.3866   -0.1686 O   0  0  0  0  0  0  0  0  0  0  0  0
    1.8766   -0.7741    0.0384 C   0  0  0  0  0  0  0  0  0  0  0  0
    0.7073   -1.3489    0.3773 O   0  0  0  0  0  0  0  0  0  0  0  0
    1.7765    0.3206   -0.0263 H   0  0  0  0  0  0  0  0  0  0  0  0
   -0.0016   -0.6892    0.5002 H   0  0  0  0  0  0  0  0  0  0  0  0
  1  2  2  0
  2  3  1  0
  2  4  1  0
  3  5  1  0
M  END
