none
     RDKit          3D

 16 15  0  0  0  0  0  0  0  0999 V2000
    2.9253   -1.4054   -0.1722 O   0  0  0  0  0  0  0  0  0  0  0  0
    1.8743   -0.7694    0.0400 C   0  0  0  0  0  0  0  0  0  0  0  0
    0.7211   -1.3219    0.3719 O   0  0  0  0  0  0  0  0  0  0  0  0
   -0.3268   -0.3557    0.5504 C   0  0  0  0  0  0  0  0  0  0  0  0
   -1.4869   -0.7480   -0.3474 C   0  0  0  0  0  0  0  0  0  0  0  0
   -1.7657   -2.1417   -0.1578 O   0  0  0  0  0  0  0  0  0  0  0  0
   -2.7789   -0.0258   -0.0154 C   0  0  0  0  0  0  0  0  0  0  0  0
   -2.6534    1.3483   -0.3029 O   0  0  0  0  0  0  0  0  0  0  0  0
   -0.6026   -0.3895    1.5994 H   0  0  0  0  0  0  0  0  0  0  0  0
   -1.2110   -0.6014   -1.4029 H   0  0  0  0  0  0  0  0  0  0  0  0
   -0.9091   -2.5864   -0.1555 H   0  0  0  0  0  0  0  0  0  0  0  0
   -3.6111   -0.4461   -0.6021 H   0  0  0  0  0  0  0  0  0  0  0  0
   -3.0412   -0.1590    1.0466 H   0  0  0  0  0  0  0  0  0  0  0  0
   -3.5335    1.7421   -0.1725 H   0  0  0  0  0  0  0  0  0  0  0  0
    1.8563    0.3273   -0.0393 H   0  0  0  0  0  0  0  0  0  0  0  0
    0.0004    0.6849    0.3258 H   0  0  0  0  0  0  0  0  0  0  0  0
  1  2  2  0
  2  3  1  0
  3  4  1  0
  4  5  1  0
  5  6  1  0
  5  7  1  0
  7  8  1  0
  2 15  1  0
  4  9  1  0
  4 16  1  0
  5 10  1  0
  6 11  1  0
  7 12  1  0
  7 13  1  0
  8 14  1  0
M  END
