none
     RDKit          3D

 15 14  0  0  0  0  0  0  0  0999 V2000
    2.9253   -1.4051   -0.1724 O   0  0  0  0  0  0  0  0  0  0  0  0
    1.8746   -0.7703    0.0405 C   0  0  0  0  0  0  0  0  0  0  0  0
    0.7207   -1.3206    0.3716 O   0  0  0  0  0  0  0  0  0  0  0  0
   -0.3266   -0.3578    0.5513 C   0  0  0  0  0  0  0  0  0  0  0  0
   -1.4877   -0.7447   -0.3483 C   0  0  0  0  0  0  0  0  0  0  0  0
   -1.7675   -2.1380   -0.1580 O   0  0  0  0  0  0  0  0  0  0  0  0
   -2.7764   -0.0289   -0.0131 C   0  0  0  0  0  0  0  0  0  0  0  0
   -0.6032   -0.3890    1.5993 H   0  0  0  0  0  0  0  0  0  0  0  0
   -1.2220   -0.6089   -1.4062 H   0  0  0  0  0  0  0  0  0  0  0  0
   -0.9118   -2.5894   -0.1417 H   0  0  0  0  0  0  0  0  0  0  0  0
   -3.5953   -0.3862   -0.6585 H   0  0  0  0  0  0  0  0  0  0  0  0
   -3.0895   -0.2458    1.0203 H   0  0  0  0  0  0  0  0  0  0  0  0
    1.8568    0.3273   -0.0377 H   0  0  0  0  0  0  0  0  0  0  0  0
   -0.0027    0.6853    0.3238 H   0  0  0  0  0  0  0  0  0  0  0  0
   -2.6783    1.0432   -0.1336 H   0  0  0  0  0  0  0  0  0  0  0  0
  1  2  2  0
  2  3  1  0
  3  4  1  0
  4  5  1  0
  5  6  1  0
  5  7  1  0
  2 13  1  0
  4  8  1  0
  4 14  1  0
  5  9  1  0
  6 10  1  0
  7 11  1  0
  7 12  1  0
  7 15  1  0
M  END
