none
     RDKit          3D

  8  7  0  0  0  0  0  0  0  0999 V2000
   -0.3101   -0.3482    0.5375 C   0  0  0  0  0  0  0  0  0  0  0  0
   -1.4710   -0.7497   -0.3442 C   0  0  0  0  0  0  0  0  0  0  0  0
   -0.5854   -0.4243    1.5937 H   0  0  0  0  0  0  0  0  0  0  0  0
   -1.1957   -0.6736   -1.4004 H   0  0  0  0  0  0  0  0  0  0  0  0
    0.5515   -0.9982    0.3584 H   0  0  0  0  0  0  0  0  0  0  0  0
   -0.0112    0.6842    0.3330 H   0  0  0  0  0  0  0  0  0  0  0  0
   -1.7699   -1.7821   -0.1397 H   0  0  0  0  0  0  0  0  0  0  0  0
   -2.3326   -0.0997   -0.1651 H   0  0  0  0  0  0  0  0  0  0  0  0
  1  2  1  0
  1  3  1  0
  1  5  1  0
  1  6  1  0
  2  4  1  0
  2  7  1  0
  2  8  1  0
M  END
