none
     RDKit          3D

 16 15  0  0  0  0  0  0  0  0999 V2000
   -0.3271   -0.3534    0.5612 C   0  0  0  0  0  0  0  0  0  0  0  0
   -1.4828   -0.7491   -0.3532 C   0  0  0  0  0  0  0  0  0  0  0  0
   -2.7813   -0.0353   -0.0139 C   0  0  0  0  0  0  0  0  0  0  0  0
   -2.6564    1.3469   -0.3046 O   0  0  0  0  0  0  0  0  0  0  0  0
    0.4110    0.9134    0.2210 C   0  0  0  0  0  0  0  0  0  0  0  0
    1.7207    0.6952   -0.0501 C   0  0  0  0  0  0  0  0  0  0  0  0
   -0.6710   -0.2601    1.5908 H   0  0  0  0  0  0  0  0  0  0  0  0
   -1.2158   -0.5721   -1.4024 H   0  0  0  0  0  0  0  0  0  0  0  0
   -3.6004   -0.4424   -0.6153 H   0  0  0  0  0  0  0  0  0  0  0  0
   -3.0353   -0.1566    1.0459 H   0  0  0  0  0  0  0  0  0  0  0  0
   -3.5094    1.7628   -0.0963 H   0  0  0  0  0  0  0  0  0  0  0  0
    0.3710   -1.2001    0.5689 H   0  0  0  0  0  0  0  0  0  0  0  0
   -1.6474   -1.8289   -0.2365 H   0  0  0  0  0  0  0  0  0  0  0  0
   -0.0475    1.8997    0.2117 H   0  0  0  0  0  0  0  0  0  0  0  0
    2.1472   -0.2939   -0.0299 H   0  0  0  0  0  0  0  0  0  0  0  0
    2.3740    1.5139   -0.3062 H   0  0  0  0  0  0  0  0  0  0  0  0
  1  2  1  0
  1  5  1  0
  2  3  1  0
  3  4  1  0
  5  6  2  3
  1  7  1  0
  1 12  1  0
  2  8  1  0
  2 13  1  0
  3  9  1  0
  3 10  1  0
  4 11  1  0
  5 14  1  0
  6 15  1  0
  6 16  1  0
M  END
