22
Coordinates from ORCA-job 12351
  C   -0.03489775693445      1.54891678876826     -0.03267853814278
  C   0.06208292657520      0.03057124240674     -0.00103478531939
  C   0.68205099709124     -0.52720784343513     -1.28372206712645
  C   0.95275809157508     -1.99870653840914     -1.20149265599140
  C   0.92194660141082     -2.68139871350901     -0.05119431452218
  C   0.63281955354465     -2.04237623680245      1.27611729477388
  C   0.79238585893151     -0.51812737061951      1.23987632710600
  C   2.26565403962316     -0.12106077751356      1.30486050883054
  H   0.95675000374924      2.01851507115796     -0.13159422991416
  H   -0.64174993392875      1.88710165349649     -0.88735582969660
  H   -0.50094254397957      1.94054164448388      0.88535760427525
  H   -0.96854526299334     -0.36784807515756      0.05448025983666
  H   0.01702520691005     -0.31691295578144     -2.14005176263451
  H   1.62222898242836      0.01074260728391     -1.51743802652043
  H   1.18571888984302     -2.52406443636794     -2.13414728342828
  H   1.11047080857942     -3.76057407633164     -0.06218656325419
  H   -0.39433246075635     -2.30838042935119      1.59003452318415
  H   1.29255101563446     -2.47473158512347      2.04878493765191
  H   0.29036284117631     -0.09961781274220      2.13053983386147
  H   2.84046808939149     -0.57357318755002      0.48164382335648
  H   2.40264456097185      0.96965178748501      1.25714105997152
  H   2.71706400125660     -0.46756896648800      2.24741788360253
