68
Coordinates from ORCA-job imatinib
  C   0.56874814468815     -5.25405570943258      2.03097340920854
  N   -0.05690589320176     -4.35702515875654      2.97389534691272
  C   0.75732455781811     -4.01599833737579      4.11105479851837
  C   1.96306308702822     -3.13156853099174      3.74539501447354
  N   1.66871737258718     -2.32192598373751      2.57197013441977
  C   2.61291591871786     -1.23210720287813      2.44713710273153
  C   2.62609329603422     -0.56301267395601      1.09615293998559
  C   3.45117796320240     -1.03872759909064      0.06914193741565
  C   3.50932086931971     -0.39617310449186     -1.16433380403669
  C   2.68931170498066      0.70825936474339     -1.42069498629072
  C   1.84864693436179      1.18147110102580     -0.40669465304055
  C   1.83746600238790      0.56264332594601      0.84074590374802
  C   2.78507394856424      1.37279310574562     -2.76264389317879
  O   3.85250195224133      1.57147112827056     -3.29493205580529
  N   1.58132785317760      1.44227272100178     -3.49176922036618
  C   0.63158692920281      2.47065857600863     -3.16160600218805
  C   0.90255110598263      3.83018530389050     -3.30537390096213
  C   -0.07065842920932      4.74683455375332     -2.90669079143182
  C   -1.28578634653933      4.35432579491874     -2.34041326687088
  C   -2.29248883174133      5.37238647731928     -1.89033417769492
  C   -1.53929521156646      2.96974391264986     -2.18890398034138
  N   -2.73779707493416      2.57483882071358     -1.59655946505624
  C   -3.14569690065864      1.35087640549503     -1.13300558663456
  N   -4.37661517639051      1.34431179445846     -0.59364959750511
  C   -4.79591145007469      0.17806977905874     -0.12926147757592
  C   -4.03725782011606     -0.99230537401436     -0.18938772309619
  C   -2.77426357128177     -0.87971459117879     -0.78131679453303
  N   -2.34133221377369      0.29796940341106     -1.23582027094384
  C   -1.84410376272835     -2.01826064190433     -0.94627128672545
  C   -0.47093002507384     -1.79220111882968     -1.11293401110481
  C   0.37623588474563     -2.87959904710646     -1.28018092442131
  C   -0.17948097393100     -4.15944003927153     -1.29080620880523
  N   -1.48240017537988     -4.39316641572362     -1.14495303995319
  C   -2.28648260242959     -3.34934244256349     -0.97615516688269
  C   -0.58421585354124      2.04946505185859     -2.63273345282744
  C   0.28011654276497     -1.92097054964651      2.52322765615286
  C   -0.62936891751609     -3.15644783298733      2.39060029451355
  H   1.43512030729556     -4.81581384399296      1.49232232917338
  H   0.91108035271807     -6.15914693112938      2.55855485058155
  H   -0.16990293764947     -5.57327161258466      1.27946485674887
  H   0.11752994206940     -3.48399569386343      4.83661910656329
  H   1.10245675603616     -4.93051111456141      4.61970307769417
  H   2.85335149902493     -3.74739577308473      3.52754239669757
  H   2.22429694184362     -2.49912602043064      4.62542002679063
  H   3.61621391233882     -1.64405200293982      2.64279494592017
  H   2.43981027462820     -0.45702565536972      3.23083067554088
  H   4.07977592248925     -1.91462129465795      0.25272276439855
  H   4.19446858894385     -0.74073671161471     -1.94212109674320
  H   1.22093165286628      2.05697738240087     -0.57967297373823
  H   1.20964419695571      0.97145556476538      1.63736506852819
  H   1.87526507553192      1.57318837491823     -4.46204140034818
  H   1.86026155576179      4.16671546796324     -3.70878644630935
  H   0.12760326188775      5.81626993622907     -3.01933831525590
  H   -3.24889287343288      5.27481571774534     -2.43363195112793
  H   -2.51539025250810      5.27822513646154     -0.81358330524973
  H   -1.92638344880516      6.39326219167379     -2.06191924476406
  H   -3.43065445209020      3.29201011026580     -1.42376915655866
  H   -5.79485261178809      0.16512347893801      0.32256200934927
  H   -4.41167782883508     -1.92957194580999      0.22084857376219
  H   -0.07967042944674     -0.77326294496468     -1.09692040230285
  H   1.45213589733791     -2.73299265727358     -1.38952255669409
  H   0.46227280390493     -5.03870917374931     -1.41768031967677
  H   -3.35432577382642     -3.57686228851254     -0.87953296246125
  H   -0.77122132960327      0.98598458174866     -2.52981667578391
  H   0.12244221502277     -1.26526462481257      1.65420093463902
  H   0.00149982812929     -1.31931971600132      3.42172500250086
  H   -0.83090545018761     -3.35061620959456      1.32959551658008
  H   -1.60473243433088     -2.92951599449362      2.86172587173771
