68
Coordinates from ORCA-job imatinib
  C   0.30226824121859     -4.91932697726943      2.01972280937103
  N   -0.35940962991622     -4.01854829307838      2.93572860834172
  C   0.40865801083940     -3.66899193839290      4.10235458798034
  C   1.62736423466828     -2.78297701577879      3.77903939838095
  N   1.40035134920904     -2.03046143097353      2.55632376828387
  C   2.36805782565257     -0.96989666863348      2.39877564576251
  C   2.43606661122419     -0.41179092911620      1.00047845587563
  C   2.99663692845666     -1.16891813129539     -0.03618757107809
  C   3.09631031776371     -0.65171447058731     -1.32182828015769
  C   2.58957705580616      0.62115233778711     -1.62001800142752
  C   2.03681034601305      1.38477573065195     -0.58705950493538
  C   1.96845887500603      0.87016009466163      0.70673712973266
  C   2.77938841515735      1.10876224454303     -3.02806248083768
  O   3.80168452789025      0.85639526832881     -3.63266736612315
  N   1.70545592895556      1.67245304076425     -3.69777170449838
  C   0.72563748542182      2.55290168089607     -3.16421063342796
  C   0.84128703476752      3.93337664680937     -3.32140470695916
  C   -0.13834897234438      4.75782703202818     -2.77087118817601
  C   -1.21569225668706      4.25100142034722     -2.04490891939818
  C   -2.23762579290009      5.16950885970823     -1.44027477097079
  C   -1.32102683908336      2.84582206262715     -1.89431578558827
  N   -2.39801784455149      2.35910462997346     -1.15900712171155
  C   -2.74841907211723      1.09360403220394     -0.77236942360632
  N   -3.88215051191379      1.04553642180977     -0.05013325103812
  C   -4.26672247917157     -0.15509724949228      0.34706954635009
  C   -3.56500587944905     -1.32140056428348      0.04081367473317
  C   -2.40351606051301     -1.16296527102156     -0.72286514335154
  N   -1.99850098794539      0.04903423164699     -1.11244976208600
  C   -1.55181472016467     -2.30407863520380     -1.11680462762218
  C   -0.18754802483400     -2.12140545252177     -1.37221960189616
  C   0.58548899828150     -3.22747064432001     -1.70003401991484
  C   -0.02931076499685     -4.47800946176600     -1.76527792156343
  N   -1.32834573401533     -4.66641320387061     -1.54154226653693
  C   -2.06368640401735     -3.60596912018297     -1.23091277972510
  C   -0.36444629378099      2.01229811432557     -2.48405294423207
  C   0.02568046993610     -1.59988304693777      2.42246262921108
  C   -0.90992144309270     -2.82258182446879      2.32789410201869
  H   1.19522105706630     -4.48793940307650      1.52205184348255
  H   0.61104429539816     -5.82894831572694      2.56009146115476
  H   -0.40210903889508     -5.23075404588589      1.23244446478514
  H   -0.26176703492946     -3.13264913966087      4.79653077834698
  H   0.73387451910249     -4.57976912688468      4.63025966525190
  H   2.53630843397757     -3.39453741174202      3.64259559074230
  H   1.82617150368217     -2.11057381042669      4.64594484690169
  H   3.35702257630095     -1.38408841573203      2.65824515908212
  H   2.18449522250730     -0.13693391935555      3.11690316847543
  H   3.36987659523042     -2.17332864684996      0.18144100699076
  H   3.57757486152248     -1.22027669969905     -2.12093457016261
  H   1.67493586434426      2.39514263561214     -0.77821004165743
  H   1.54620867802238      1.48368369717128      1.50755030029672
  H   2.01568545132415      1.92868652562703     -4.63282136969885
  H   1.69425793367821      4.35863643091352     -3.85478402224605
  H   -0.05515163929711      5.84105306192259     -2.89380235967199
  H   -3.24930811572563      4.98206676845605     -1.84091282522243
  H   -2.29246454637577      5.05901825861922     -0.34325690067219
  H   -1.99605086045020      6.21994635643415     -1.64983288126414
  H   -3.06385958931821      3.04169358399427     -0.81998865589648
  H   -5.18269190168197     -0.20099205908199      0.94797437613288
  H   -3.89652428184147     -2.29286628486765      0.40524057961985
  H   0.25652318058880     -1.12702289522355     -1.28783088795987
  H   1.65452961581121     -3.12119708044534     -1.89003867163407
  H   0.55827093861191     -5.37116508567934     -2.00681989928540
  H   -3.13270751571547     -3.79031969613777     -1.07395594170162
  H   -0.46176493810207      0.93524126451434     -2.38498398130238
  H   -0.07110755154243     -0.98726910882847      1.51189025459817
  H   -0.27430253793163     -0.94041481640762      3.27181231063335
  H   -1.12198097512785     -3.04411202968970      1.27479772078912
  H   -1.87714314500774     -2.56707411178115      2.80077890191262
