68
Coordinates from ORCA-job imatinib
  C   0.30310974952958     -4.86599129661397      2.02548310858462
  N   -0.36931638640802     -3.96183602104448      2.93012980190609
  C   0.38478215705313     -3.60822133697118      4.10479108379713
  C   1.60689021298159     -2.72252227233888      3.79317835796010
  N   1.39261861638093     -1.97487675408898      2.56572253617184
  C   2.36364037230783     -0.91837560535844      2.40568745679452
  C   2.43892537975064     -0.37962462153828      1.00035031713309
  C   2.94183130424199     -1.18001137620765     -0.03328793709729
  C   3.03840778494936     -0.68864986365834     -1.32877378457266
  C   2.58578714413792      0.60160074308391     -1.63918209263467
  C   2.09682633679706      1.40979309020679     -0.60805363495490
  C   2.03085656005463      0.91982142560929      0.69536242233878
  C   2.76382740918226      1.04964459682253     -3.06119867403475
  O   3.74417172231989      0.71024551135979     -3.69401089455386
  N   1.73735214291575      1.72070601978249     -3.69759790665406
  C   0.74826668236942      2.56915079823940     -3.13846682532331
  C   0.84656193887783      3.95338693511034     -3.27634814778307
  C   -0.13789372200259      4.76017726033791     -2.70975273247766
  C   -1.20648297943775      4.23122801933029     -1.98763856381464
  C   -2.23534259257113      5.13010249618496     -1.36545840272571
  C   -1.29717985568541      2.82252140431680     -1.85907588982260
  N   -2.37186082905653      2.31931089942616     -1.13221447142274
  C   -2.72644497089590      1.04910948007183     -0.76652020736951
  N   -3.86056750397148      0.99784558974967     -0.04460645666847
  C   -4.25331759247492     -0.20519008952543      0.33575518818854
  C   -3.55871178844307     -1.37090444820109      0.01281726144701
  C   -2.39639597758355     -1.20942770409863     -0.74895166208420
  N   -1.98275927106870      0.00528830459873     -1.12288765011669
  C   -1.55297312141463     -2.35283810286414     -1.15410829841591
  C   -0.19117994633846     -2.17375367428760     -1.42331687184325
  C   0.57640050175222     -3.28135190287589     -1.75849190311628
  C   -0.04160853325482     -4.53063670211250     -1.81671724146968
  N   -1.33869952115559     -4.71596012877631     -1.57941894113496
  C   -2.06860577473716     -3.65383916594254     -1.26201173677991
  C   -0.33384523660825      2.00582937388047     -2.46178145815178
  C   0.01975057880015     -1.54435479500549      2.41484529843144
  C   -0.91343314093615     -2.76827755640770      2.31156757903194
  H   1.20230933034241     -4.43708237559195      1.53702733169644
  H   0.60498309048455     -5.77382419977033      2.57271368996553
  H   -0.39158063570108     -5.18064496325414      1.23082021715368
  H   -0.29412181911681     -3.07025948170681      4.78938764587588
  H   0.70420816488402     -4.51724577824020      4.63919395013275
  H   2.51740554905189     -3.33429297789329      3.66849409909716
  H   1.79591369802829     -2.04757781206417      4.66028937533026
  H   3.35006305083515     -1.33291864451983      2.67492131180093
  H   2.17881447732574     -0.07712343558278      3.11351714586758
  H   3.26594599607508     -2.19901741280147      0.19440355159807
  H   3.47314307892365     -1.29136383371920     -2.12955605303725
  H   1.77930420852003      2.43318468625648     -0.80889631006788
  H   1.65432260163327      1.56520805164598      1.49390400192504
  H   2.04154206425526      1.98356786517800     -4.63181761091169
  H   1.69304918716639      4.39442530909375     -3.80710882313072
  H   -0.06576533095494      5.84585637253858     -2.81677653704029
  H   -3.24652697385780      4.94025077979944     -1.76630489568327
  H   -2.28614680816731      5.00175555632590     -0.27018070531758
  H   -2.00389108599404      6.18588491224871     -1.55888674178247
  H   -3.03846894467050      2.99566938914411     -0.78233365832260
  H   -5.16958433715108     -0.25362813562396      0.93600689466258
  H   -3.89601553819326     -2.34495720906789      0.36448540355996
  H   0.25506676962211     -1.18031163070732     -1.34312239292351
  H   1.64371519642131     -3.17801296786974     -1.96005839371972
  H   0.54134450377323     -5.42520349088510     -2.06415778109451
  H   -3.13615920740776     -3.83653175621965     -1.09407559814712
  H   -0.42234916681746      0.92645296883557     -2.37772686581572
  H   -0.06654775408712     -0.93323261822480      1.50213727469017
  H   -0.29051752397273     -0.88353042411442      3.25928575419713
  H   -1.11095247091676     -2.99317620815800      1.25629799430158
  H   -1.88715122069182     -2.51268906524521      2.77082869837708
