68
Coordinates from ORCA-job imatinib
  C   0.48650074455843     -5.32501636845080      2.00617388485507
  N   -0.05238395178125     -4.42506576786786      2.99855134232375
  C   0.83485382078733     -4.14488614453668      4.09666824939094
  C   2.05605734962023     -3.30389781414235      3.68476515222515
  N   1.73533382231160     -2.44227918780191      2.55446886985118
  C   2.71437342106413     -1.38103663951725      2.43379628750453
  C   2.70255659419864     -0.64028372264629      1.12015983996144
  C   3.55205082670379     -1.02179150542358      0.07412769230948
  C   3.59642992350644     -0.30525380418688     -1.11966348108046
  C   2.73602611068233      0.77877134956478     -1.31556705681935
  C   1.86749806844720      1.15734909662752     -0.28554120263067
  C   1.87458897707877      0.47037914780543      0.92497823120420
  C   2.79610726120745      1.53874881857009     -2.60626316394625
  O   3.84186746742286      1.91769162129220     -3.07523641492796
  N   1.60811277076471      1.48770739392790     -3.37921746000295
  C   0.62452309613034      2.51298185811169     -3.13954275914898
  C   0.84861696203624      3.86497277529721     -3.39315150554443
  C   -0.16486072423807      4.77321317383874     -3.08505185820153
  C   -1.37573243429565      4.38378053516735     -2.50750211876546
  C   -2.43013229942539      5.39660233272576     -2.16737558259084
  C   -1.58124619163159      3.00797633505746     -2.24389381538938
  N   -2.78009579898125      2.61731334056703     -1.64910233122232
  C   -3.18814618982793      1.40117826760582     -1.16620911036383
  N   -4.43196165097190      1.39568426344134     -0.65666578529810
  C   -4.85509451928064      0.23550641835571     -0.18102967826859
  C   -4.08840960354263     -0.93131615098416     -0.20200226722330
  C   -2.81153646562438     -0.82024968733404     -0.76299106434338
  N   -2.37394201164163      0.35233660994383     -1.22635468223009
  C   -1.87018046116509     -1.95479169349865     -0.88826534152725
  C   -0.49347147450111     -1.72119598780060     -1.00707773811998
  C   0.36541981289773     -2.80238619004401     -1.15208581347354
  C   -0.18339650532117     -4.08452224876694     -1.19274803178401
  N   -1.48885844584549     -4.32623357619480     -1.08760148672996
  C   -2.30395983079210     -3.28807098995361     -0.93615638888865
  C   -0.58183434280323      2.09250284972656     -2.58878749370966
  C   0.36127653143232     -1.99188559396980      2.58790368306077
  C   -0.60320647820023     -3.18747999671930      2.47466800778026
  H   1.34818108593723     -4.91364978475724      1.43942433054952
  H   0.80934560106282     -6.25829117451182      2.49564580572422
  H   -0.29839086561989     -5.58938735808916      1.28099620239400
  H   0.25855711685576     -3.60424568732608      4.86763218283869
  H   1.16786713752414     -5.08465179679676      4.56590554424503
  H   2.90250073708900     -3.95208752650237      3.39710488551783
  H   2.39665090078220     -2.71299680657602      4.56625592598306
  H   3.70820139159662     -1.83810515970288      2.56567860556921
  H   2.60508253887362     -0.64044191397940      3.26153582271753
  H   4.21374839017033     -1.88172487142673      0.21123293296153
  H   4.30026033363414     -0.58097935783122     -1.90825803921133
  H   1.20361120224265      2.01383799282252     -0.42001539865665
  H   1.23157970749786      0.81298371311893      1.74018862589206
  H   1.93834565285589      1.60729061131367     -4.33989999050308
  H   1.79921560498943      4.20281535881698     -3.81178397297806
  H   -0.00465736260501      5.83623366780123     -3.28524964837033
  H   -3.37036361000495      5.21246844537441     -2.71635316437347
  H   -2.67169755541091      5.39031343162862     -1.09040869317745
  H   -2.10027882020082      6.41224821041702     -2.42307945928657
  H   -3.48801455867148      3.32886924633927     -1.51953550751417
  H   -5.86453746541126      0.22432556332473      0.24694318454471
  H   -4.46704122831415     -1.86405035214176      0.21486542479262
  H   -0.10812751961978     -0.70081588460500     -0.97344659998190
  H   1.44374284140579     -2.64922435616085     -1.22115277857348
  H   0.46640708342414     -4.95933935966304     -1.30771324579198
  H   -3.37306505419419     -3.52183442159736     -0.87324888560896
  H   -0.73554675408369      1.03433941654451     -2.40697681248411
  H   0.18248358883408     -1.31187679908138      1.74251207708569
  H   0.15223810068550     -1.40198419669222      3.51280828787892
  H   -0.87016951970144     -3.34528420867903      1.42177773158919
  H   -1.54113288260352     -2.93305775916812      3.00396701799189
