68
Coordinates from ORCA-job imatinib
  C   0.58407294468451     -5.09012077661957      2.04254735082912
  N   -0.16287213134957     -4.22381768836307      2.92439889852983
  C   0.54760812387321     -3.80734161522500      4.10547265784726
  C   1.71424070016214     -2.84871280193528      3.79984849611778
  N   1.45858755401969     -2.11305773325988      2.57232871158770
  C   2.34497604992677     -0.98177305469904      2.43453742726304
  C   2.40327328641271     -0.42148430770615      1.03664758915101
  C   3.02219864583828     -1.14678553523510      0.01031282043375
  C   3.12700866166798     -0.62069735625618     -1.27130559259257
  C   2.56568003608390      0.62730617836332     -1.57733304745794
  C   1.94559999445458      1.35553253739096     -0.55694556588259
  C   1.87407881747098      0.83394463034821      0.73433640795762
  C   2.76375297401296      1.13200146036607     -2.97886934369152
  O   3.81550628091423      0.94917597210338     -3.55537326309152
  N   1.65577293105112      1.58784362146212     -3.68294156125842
  C   0.70280991278630      2.52798148003850     -3.19264202514689
  C   0.88920162311848      3.90106998726997     -3.34336238390367
  C   -0.06942297412751      4.76881501136746     -2.82195263800628
  C   -1.19133248575781      4.31184017036286     -2.12971285311789
  C   -2.18721956938126      5.27574159439854     -1.55330346458505
  C   -1.36525280914563      2.91362279330342     -1.98244224826145
  N   -2.48120596276693      2.47017499981638     -1.27784174717035
  C   -2.85882975351820      1.22053225064364     -0.86414126475488
  N   -4.02019225599282      1.20043572284187     -0.18666095220008
  C   -4.42499830116447      0.01371844985286      0.23355334542139
  C   -3.71686747609996     -1.16449779337550     -0.00509731996345
  C   -2.52552404073261     -1.03525659518702     -0.72764206474093
  N   -2.10260987488048      0.16211306508447     -1.14042542379551
  C   -1.66252023718600     -2.18848705780159     -1.05765818354710
  C   -0.29156948436545     -2.01324549503585     -1.28503082420761
  C   0.48872938745886     -3.12891608599799     -1.55869834536626
  C   -0.12590817341725     -4.38052080333419     -1.60508702966996
  N   -1.43051374745018     -4.56212340112965     -1.41061663117728
  C   -2.17227935551861     -3.49300502253407     -1.14759828306808
  C   -0.42958318098461      2.03930985052110     -2.54586048644141
  C   0.05847798250503     -1.78776667008874      2.41003853974420
  C   -0.77507144205581     -3.07723744751472      2.27905666557735
  H   1.45511061457079     -4.60324044815217      1.55638746914804
  H   0.94542736516214     -5.96464554800742      2.60769528067537
  H   -0.07827513702154     -5.46585447062237      1.24692612183021
  H   -0.17496152969464     -3.30603133082606      4.77286182037152
  H   0.91654708495653     -4.68686875112227      4.65712690856676
  H   2.66110851844484     -3.40347647771642      3.67876629176241
  H   1.85671361222438     -2.16530663007436      4.66911773652998
  H   3.35681367191395     -1.31826468104214      2.71753932628083
  H   2.08224421672265     -0.16461633860797      3.14617355921882
  H   3.44056309561316     -2.13180458536525      0.23459273635649
  H   3.65481115611066     -1.16278754094438     -2.05925603513067
  H   1.53572736701594      2.34598063930317     -0.75462075523960
  H   1.40162140268975      1.42186268751204      1.52626716952211
  H   1.96857146914854      1.80811953261192     -4.62734862015021
  H   1.77725673950583      4.28705579171620     -3.84868370850488
  H   0.06685460685100      5.84727544052028     -2.93956442726488
  H   -3.19445483992225      5.13461972558968     -1.98315609532931
  H   -2.27838063136834      5.16609973512879     -0.45874663287148
  H   -1.89277125808187      6.31431309858555     -1.75419349699892
  H   -3.14618279530269      3.17282308519775     -0.98068132211271
  H   -5.36479508983630     -0.00979475727168      0.79783094614475
  H   -4.06790143236483     -2.12266460936919      0.37623085023981
  H   0.15171873864462     -1.01666357012882     -1.22226554500411
  H   1.56252197151720     -3.02817818434041     -1.72196323188560
  H   0.46711243516250     -5.27999997020879     -1.80677057965957
  H   -3.24506221052816     -3.67274937803425     -1.01297039758343
  H   -0.57168821496833      0.96743968064705     -2.44804188398208
  H   -0.06437259084141     -1.17214063681107      1.50521150710943
  H   -0.31093310284250     -1.16491410286922      3.25950140651004
  H   -0.91844640987114     -3.31887242418717      1.21851155942208
  H   -1.78156147415710     -2.89427751534738      2.70151567466746
