50
Coordinates from ORCA-job oseltamivir
  O   0.47370554157710     -2.09792402545228      0.90305279941356
  O   -3.44474575137982      0.61780837417728     -1.71282831246224
  O   -4.09873617934003     -1.07190473462838     -0.39846967179885
  O   0.72144318319598      3.13193877994949      0.24098432241930
  N   0.49669447936318      1.21846145880001      2.23099057754181
  N   2.65909453111651      1.73181799651500      0.24255646659425
  C   0.33413975607039      0.33946417716776      1.32279338092167
  C   1.35181856684921      2.00494618842969     -0.32641655218530
  C   -0.23796427297765     -1.05216894448938      1.50908288720629
  C   -0.96194568749123      0.90426966546771     -0.64427744492023
  C   -1.58341329822959     -1.03684573627497      0.83047519787197
  C   -1.89133265370721     -0.16416330058768     -0.14238980587261
  C   1.80324673911554     -2.43556551480459      1.30789753398268
  C   2.05283105710532     -2.21106585119417      2.79592182597554
  C   2.82481945339543     -1.76579932884884      0.39191895547711
  C   -3.25622237833043     -0.27947375181949     -0.73935998702752
  C   0.47347653971067      0.74273048807584     -0.12271094253825
  C   3.33505367593161     -2.85112730584082      3.30800850282013
  C   2.61039853011820     -2.07898659825002     -1.08369258510925
  C   1.54288188637246      2.31484161618233     -1.80210106020557
  C   -4.72179343381081      0.60567846994078     -2.34749112055163
  C   -4.74423498351834      1.71355542252565     -3.36821342947851
  H   0.94096462626275     -0.09282095651323     -0.66024390840434
  H   0.57058662299898      2.88362874290896      1.17073768606645
  H   -0.38046134893929     -1.22963148308784      2.59402299973610
  H   -1.33408608551138      1.89710821049815     -0.33751011762337
  H   -0.98051719721710      0.90648600446734     -1.74415829277429
  H   -2.31793529354126     -1.79392229831346      1.11868191589231
  H   1.84853550257535     -3.52558473181636      1.12732874325833
  H   0.29598366679440      0.84097380798998      3.16307896920196
  H   2.57605747858025      1.69467216818641      1.25710142431001
  H   3.27539031022702      2.51568916020922      0.03560653776852
  H   1.19664584853389     -2.63307667483947      3.34908040581728
  H   2.06845592574763     -1.12883822877016      3.01251247675773
  H   2.81590864719285     -0.67293259039307      0.54422473276428
  H   3.83083390025412     -2.10165420744550      0.69290914927632
  H   3.35899416321385     -3.92999996515036      3.08523804237031
  H   3.42247578671026     -2.73547376217020      4.39853565037629
  H   4.23108321501090     -2.39852879713107      2.85802478565580
  H   3.27454951116909     -1.47117017671491     -1.71570147744960
  H   1.57080084243965     -1.88081570679643     -1.38380128435612
  H   2.80941616042383     -3.14061602594906     -1.30311990853671
  H   2.01949959165466      1.47143365407832     -2.32035051211663
  H   0.58222502513065      2.54673059075551     -2.28076825852018
  H   2.18187437467493      3.20513266404431     -1.90043526886137
  H   -5.50338284839626      0.73071661458539     -1.58033893853577
  H   -4.88406147134012     -0.38466509817680     -2.80380117708467
  H   -4.58140300662810      2.69034815397408     -2.88933724699463
  H   -3.95984437874644      1.56704367935253     -4.12542663449295
  H   -5.71780487041155      1.73667970717686     -3.87932203157541
