50
Coordinates from ORCA-job oseltamivir
  O   2.04991525852815     -1.37445918385159      0.68462055213050
  O   -3.06843792497233      0.38736383492194     -1.81794070433705
  O   -2.32165775836391     -1.72162645398074     -1.90242440338119
  O   0.74585497016096      3.41185682010503      1.38660669651693
  N   2.65666244640853      1.23282339107548      0.53238793808908
  N   1.94898653582645      3.74303611134069     -0.66643761039959
  C   1.46645737266148      0.88346660003604      0.26382486123552
  C   0.73261454216163      3.30583019587949     -0.03213197521569
  C   0.95496524425194     -0.51541424356289      0.61526572165450
  C   -0.95256033535742      1.34353645233864     -0.25012365743999
  C   -0.13455845134137     -0.96770310683193     -0.30277116679476
  C   -1.07926955503009     -0.09130865415858     -0.67219006877446
  C   1.87668990852568     -2.58235219187234      1.41329139881403
  C   2.13974347192734     -2.33800632640909      2.89654054812124
  C   2.80367584892807     -3.60837890161899      0.77932864930502
  C   -2.19678046234135     -0.58330828027101     -1.52109072209297
  C   0.49474048929415      1.81969488467189     -0.42625577040737
  C   1.81658747709230     -3.52081758796250      3.79650212736129
  C   2.52482876723678     -3.83811716372115     -0.69781743554852
  C   -0.39777496405832      4.21251874710335     -0.49619692156300
  C   -4.18029046156230      0.01471486836788     -2.62913755072428
  C   -5.03312535478761      1.23903858887077     -2.83815357134977
  H   0.73661867805439      1.74072459517669     -1.50168232749011
  H   1.55248919477540      2.96419506117197      1.67391199603700
  H   0.49320837928408     -0.38351874450830      1.62310227143688
  H   -1.24784856995390      1.47154262197064      0.80774982402371
  H   -1.63410087818311      1.96209850749399     -0.84292088892618
  H   -0.17994725087423     -2.00968625114093     -0.63140158530350
  H   0.83090730992891     -2.93209198737055      1.29069368813533
  H   3.16070564257524      0.43608397572358      0.93650575685156
  H   2.71266487501666      3.12939747325664     -0.37986418270109
  H   2.16491098189224      4.68907675481636     -0.35861972634273
  H   1.53757927274529     -1.46834457223871      3.21175150210732
  H   3.19476167492545     -2.03566816748299      3.01286792957363
  H   3.84119732295098     -3.25800103745965      0.92022036810447
  H   2.71430789904801     -4.55433305016803      1.33684970461122
  H   0.77358301455277     -3.85128371664123      3.66385550885909
  H   1.94705545166028     -3.25777722886531      4.85654705600056
  H   2.46667120624773     -4.38505952076117      3.59259130142339
  H   3.22364882088340     -4.57096496408110     -1.12730133778462
  H   2.62352083224617     -2.89815623014610     -1.25913032379919
  H   1.50291413621745     -4.21935114429782     -0.85784450377770
  H   -0.57578900222524      4.09198121228309     -1.57342620976882
  H   -1.32334532524884      4.01653916770193      0.06054783061337
  H   -0.11118752587701      5.25692938623067     -0.30405112663704
  H   -4.73242938953757     -0.79690887209999     -2.12751301270839
  H   -3.80638405724554     -0.39978926090293     -3.57974271867060
  H   -5.39556227545739      1.63318030446073     -1.87726977446617
  H   -4.46260141096277      2.03301167736098     -3.34230182299792
  H   -5.90481607262758      0.99118561004718     -3.46132213160294
