50
Coordinates from ORCA-job oseltamivir
  O   0.75094174074006     -1.81780201362068      0.61075862784496
  O   -3.36919796057640      0.67131355379729     -1.84638320741970
  O   -3.86893730444650     -1.31048748614281     -0.93276697367402
  O   0.39028850870127      3.27808854828112      0.84112237492100
  N   0.23662902780058      1.06522532613022      2.51933480359772
  N   2.43341265573386      2.02804020797223      0.76534157901701
  C   0.15148293065600      0.34785122140059      1.47193964266595
  C   1.14206274389008      2.29906150749920      0.15715651768507
  C   -0.21891638503606     -1.11854393601017      1.35333592208040
  C   -1.02669172416890      1.05106674938464     -0.52616397287563
  C   -1.49690499246418     -1.17012237391156      0.55822591770355
  C   -1.84423640368745     -0.18931842912371     -0.29244804942343
  C   1.87116673704334     -2.40915641454839      1.25527894135892
  C   2.55430585872116     -1.47470323890351      2.25183575944256
  C   2.81134567766302     -2.82880950312324      0.13011535345865
  C   -3.12799907006061     -0.36476414074025     -1.03680639346740
  C   0.36420518705931      0.96284235799233      0.11263240456968
  C   3.76663691316980     -2.08340214920188      2.94073028038117
  C   2.14632109087019     -3.59411908319773     -1.00165267024159
  C   1.38853703912553      2.84251032943066     -1.24069631449067
  C   -4.57526752638143      0.61976867011214     -2.60555737544288
  C   -4.64427151556288      1.86591445286016     -3.44997701759102
  H   0.96683354648483      0.24299430977898     -0.46197020043190
  H   0.21447070413395      2.88517095400852      1.71430014352005
  H   -0.37187406995452     -1.56758875298734      2.35458506428970
  H   -1.55023351168523      1.93041255340846     -0.11192943641809
  H   -0.95403881930007      1.23086081680815     -1.60897425706983
  H   -2.14195681221776     -2.04853726862819      0.64846449220478
  H   1.52285442165226     -3.31580378356351      1.79764097447372
  H   0.03880467377735      0.52593623545595      3.36839841029789
  H   2.29181443647843      1.82842332324387      1.75414352489769
  H   2.99500656590019      2.87690780485869      0.72625168379828
  H   1.82573581391353     -1.18380654717618      3.02503311157677
  H   2.83291662286849     -0.54765368204831      1.72120186064240
  H   3.28587190712394     -1.91384102686618     -0.26676406122795
  H   3.62022083691856     -3.43517401088368      0.56779119988305
  H   3.52095596906315     -3.05181464800372      3.40700215333603
  H   4.13833834887014     -1.41892195962297      3.73476242268642
  H   4.59858708423565     -2.25199176841344      2.24129378695378
  H   2.88197445846429     -3.87181871439669     -1.77123529945537
  H   1.35990830990410     -2.98996435266298     -1.47399756918518
  H   1.67649589315954     -4.52212216787282     -0.63691442401594
  H   1.95938173319946      2.12328540383552     -1.84375150803066
  H   0.44048054254633      3.07592136557335     -1.74329823891809
  H   1.95929065868231      3.78023015305144     -1.16461200908506
  H   -5.42949114677926      0.53774044965961     -1.91354125986561
  H   -4.57482424480773     -0.29807503727481     -3.21609133590809
  H   -4.64040960883751      2.76729877712991     -2.81962705571381
  H   -3.78580240788932      1.92243757173680     -4.13541092016580
  H   -5.56622513469483      1.86643984551497     -4.04960740316945
