41
Coordinates from ORCA-job penicillin
  S   -0.24493801712836      0.99716228136265     -1.40318605960073
  O   -1.96669144787255     -2.59874695363693     -0.50634821792053
  O   -4.65988495841915      1.30357637584826      0.39162199634923
  O   -3.34351973305177      0.71658498731512      2.10435604551846
  O   1.83303941953393     -1.45149944932152     -3.18700638728616
  N   -1.50651445499546     -0.44530899343314      0.33307189707140
  N   0.95412407060160     -2.03715098444408     -1.19335995080408
  C   -0.13114182025502     -0.00922738442376      0.10711880600975
  C   -1.89515888765544      1.63352370951572     -0.84080358755049
  C   -2.56791543195491      0.38647774658523     -0.16602638430157
  C   0.26979298193975     -1.50576134134447     -0.04437661449186
  C   -1.25072418513643     -1.73161702238042     -0.09764275131685
  C   -1.67746041922150      2.77119817588415      0.15473396370986
  C   -2.68315654542142      2.10227247502877     -2.05549080885473
  C   -3.53835340814502      0.79806615163603      0.92571742371473
  C   1.90223738000326     -1.39564035402753     -1.98101030358211
  C   3.19018469609951     -0.91553221040254     -1.31679638551218
  C   3.11028009320556     -0.22258436118074      0.01512988436357
  C   2.91149098151675      1.16268629819407      0.07759323976660
  C   3.21620663799449     -0.93508937562670      1.21584331518029
  C   2.80004205253005      1.81419100901780      1.30463610750348
  C   3.10026767731803     -0.28816206853896      2.44497098419777
  C   2.88646159269116      1.08975269609170      2.49337292439570
  H   0.33753668564661      0.53420356194894      0.93942120210452
  H   -3.13331570756884     -0.18063914461639     -0.92490713962348
  H   0.70395033241835     -1.85627819759369      0.90585771918855
  H   -1.14212809658716      2.43289894180154      1.05387526045840
  H   -1.09062806764889      3.57155319234145     -0.31659021678000
  H   -2.64249943725075      3.19786886486403      0.47341684891738
  H   -2.19174461837155      2.96481496096492     -2.52958516428787
  H   -2.77370057032312      1.29883279443400     -2.80099473946931
  H   -3.69296650504785      2.40902878661461     -1.74438123070383
  H   0.29104318311674     -2.49344887329959     -1.81986631697361
  H   -5.23044986354815      1.56866683246465      1.12990599030254
  H   3.79940025603525     -1.83059891362122     -1.22993864580206
  H   3.68308238822010     -0.27545346269364     -2.06057774434563
  H   2.82137668854806      1.73640756714033     -0.84813947570480
  H   3.38939823564899     -2.01486731828380      1.18454868203263
  H   2.64240155199537      2.89521116574838      1.33150455672610
  H   3.18411827731276     -0.86262039225707      3.37073494508207
  H   2.79755699322693      1.59834822632363      3.45619633231888
