41
Coordinates from ORCA-job penicillin
  S   -0.56516970398816      0.93597052114874     -1.76809433207914
  O   -1.80413459662340     -2.33460060410230      0.34759612074388
  O   -4.86837397673136      1.39821518361066      0.25907876095124
  O   -3.36800815774257      1.55071865690637      1.91368865033309
  O   1.93959080438370     -1.70404202982739     -2.81286499061282
  N   -1.54735064428182      0.00739962230348      0.44052383507573
  N   0.98700842021524     -1.72798403694658     -0.76740336866076
  C   -0.24927538874998      0.47330899917700     -0.03722506198482
  C   -2.25529404846200      1.54358155402397     -1.29910814281863
  C   -2.72710689837300      0.53623385669919     -0.18904106589236
  C   0.31311428834769     -0.95485092217081      0.23373483478071
  C   -1.16938141939430     -1.32232368796156      0.39735156908868
  C   -2.14562638222518      2.96986907210693     -0.76268184155749
  C   -3.15867187809350      1.48272285280098     -2.52251649589860
  C   -3.65830937074140      1.20695844691094      0.80417914082474
  C   1.88029475407716     -1.23673522806656     -1.69824564951386
  C   2.87625247899067     -0.17670182391796     -1.23661036375418
  C   3.22299380236119     -0.13462901877152      0.22554198734414
  C   3.12023213978778      1.05476135890701      0.95513080477633
  C   3.66080535834388     -1.28900623055475      0.88854597587839
  C   3.43088816012505      1.09227997061445      2.31454189610515
  C   3.96731653125152     -1.25651333876265      2.24647804971454
  C   3.85025856578781     -0.06587395599707      2.96565342241779
  H   0.20339931150724      1.29039027994230      0.54289318192172
  H   -3.27664874997232     -0.29715326794116     -0.65846181019504
  H   0.84924484691262     -0.95562246755730      1.19837561041065
  H   -1.54606751373702      3.01807250052294      0.15779003280801
  H   -1.67902512016533      3.61822900135149     -1.51681177248802
  H   -3.14543973980028      3.37433565150793     -0.53628307827150
  H   -2.81210581328758      2.18047814390412     -3.29910055275365
  H   -3.18020382749609      0.46904630416780     -2.94838417955149
  H   -4.18268451721941      1.76652328906608     -2.23684172190252
  H   0.38986780750275     -2.43549076525925     -1.19157024371596
  H   -5.41074471218427      1.85018723126480      0.92433930198056
  H   3.76851299562455     -0.35733545425123     -1.85522819644026
  H   2.48438695666648      0.80238188087533     -1.56287232399651
  H   2.79064013882622      1.96695531138096      0.44845478145851
  H   3.74366653418817     -2.22804091644802      0.33487301448332
  H   3.34290626780011      2.03124384015198      2.86672025110913
  H   4.30048801852933     -2.16809525037958      2.74881884851799
  H   4.08885427803970     -0.04176453042988      4.03163512136331
