41
Coordinates from ORCA-job penicillin
  S   -1.17070195246727      0.98992573979395     -2.12844221403541
  O   -1.11371579676827     -1.67819318659655      0.98190978976378
  O   -4.88275790409998      1.31966271262203      0.87864568798819
  O   -3.11938550944219      2.24508156525924      1.90002781062314
  O   2.13700022850110      0.33184382137453     -2.74027870952528
  N   -1.38082187194833      0.59651682618546      0.42730912725210
  N   1.16142924790592     -0.91648653945355     -1.06890308210788
  C   -0.38115372177511      1.12256739780171     -0.49105097525228
  C   -2.82300746185535      1.37117777595910     -1.36997360569232
  C   -2.76398327625044      0.71291544257063      0.05756252511174
  C   0.54500223289069     -0.07213105669749     -0.08705062925340
  C   -0.72675825948913     -0.62111387316090      0.58264158866447
  C   -2.98450856513983      2.88871268641247     -1.28886422265666
  C   -3.92219945187792      0.74821559274452     -2.21872449956038
  C   -3.56836157913731      1.51361309004665      1.06493833163112
  C   2.27284781885927     -0.32211928806239     -1.73917301872699
  C   3.62823659014167     -0.75305331205406     -1.21439789576499
  C   3.75609980928577     -0.68070487718678      0.28493521700553
  C   4.27808325113301      0.46736470973119      0.89204993685698
  C   3.29075999947174     -1.72023693741950      1.09929459685359
  C   4.33018658191030      0.57787332633507      2.28100005717295
  C   3.33791636815337     -1.60950203426919      2.48707341258306
  C   3.85641672552642     -0.45967195423448      3.08273420973647
  H   -0.02517468537941      2.14174250846039     -0.28129585695825
  H   -3.19580245787414     -0.30124561721341      0.01365318836271
  H   1.28662180294778      0.24698506916538      0.66260608767871
  H   -2.23291980841918      3.34513612447489     -0.62877746834538
  H   -2.88197633893034      3.33142852743234     -2.28907150780589
  H   -3.98177287595860      3.15063628970628     -0.89987083874046
  H   -3.95049383337398      1.20372743687753     -3.21971766583061
  H   -3.76921845151603     -0.33494161421730     -2.33170993354597
  H   -4.89732387971957      0.91657958043527     -1.73696148182691
  H   0.45881174332978     -1.10530928887925     -1.78961920838241
  H   -5.34443566524395      1.87502283413677      1.52608935809317
  H   3.74100265583530     -1.79680186253422     -1.55350807852823
  H   4.39084840052125     -0.14653058012491     -1.72089978214550
  H   4.64693975347147      1.28642584702223      0.26763315551962
  H   2.86189824939211     -2.61236780068184      0.63731656728097
  H   4.74246871112391      1.48061173068725      2.73856701317835
  H   2.96248312600525     -2.42677961125865      3.10758539135493
  H   3.89252005026008     -0.37347720119070      4.17131762197366
