41
Coordinates from ORCA-job penicillin
  S   -1.34849294092777      0.80455285862217     -2.01624914750575
  O   -0.91457148787614      0.49316149444297      2.02138736915286
  O   -5.40541493006730      1.31784307609493      0.45824576652889
  O   -4.25014448502058      3.21936710900581      0.70886765499915
  O   3.00044133003098      2.20463137918383      0.05099033237289
  N   -1.83939305597239      1.83263283850964      0.31441272597384
  N   1.23954295351945      0.80805539311282     -0.23835004143440
  C   -0.93073820506054      2.09312478791675     -0.79429451091722
  C   -3.13639764750194      0.90508526738903     -1.52359576880179
  C   -3.09785896247271      1.20377651280476      0.01991312517991
  C   0.25845453090280      1.75057727161097      0.15038832297656
  C   -0.84907243807908      1.23862012058645      1.08902492002431
  C   -3.79710177319510      2.03886366202369     -2.30679824598945
  C   -3.81250402779710     -0.42771936697895     -1.81151913489234
  C   -4.28282532528976      2.05225790806227      0.44471198298963
  C   2.57618097643102      1.11579553751580     -0.26702060439818
  C   3.47116372474099     -0.02532685953366     -0.71017244561068
  C   4.01461698333094     -0.82641962634809      0.45448214376125
  C   5.33707774685693     -1.28147283403545      0.42879801858849
  C   3.21589760400110     -1.15174167450631      1.55859963665206
  C   5.85013682092282     -2.04904789552469      1.47268241034204
  C   3.72961312003298     -1.91503706058485      2.60527999577288
  C   5.04687567046220     -2.36929807570152      2.56577351373002
  H   -0.97146204561223      3.10489021998132     -1.22281616767147
  H   -3.14695714741337      0.25414491914881      0.57911314928420
  H   0.77725985196244      2.64855599807009      0.52006708148611
  H   -3.35771245216475      3.01654446324467     -2.06191478830521
  H   -3.68140828372731      1.86691196689280     -3.38559225303726
  H   -4.87473108265833      2.08493509034127     -2.08191242725953
  H   -3.82776678338315     -0.63479393774784     -2.89180977292234
  H   -3.29376643524296     -1.25389163603480     -1.30396231871834
  H   -4.85234748120524     -0.39415408853194     -1.45325529428143
  H   0.92541724730271     -0.10580617957458     -0.54101426127949
  H   -6.12955333234419      1.91227813794785      0.70953438306466
  H   2.92858623793695     -0.69178089978697     -1.40344769594181
  H   4.30228268687928      0.42562303480072     -1.26859043910637
  H   5.97646263538736     -1.02652254322507     -0.42103186927603
  H   2.18375907008920     -0.79506538626855      1.61506211348840
  H   6.88672126151230     -2.39312156549716      1.43358504101826
  H   3.09245420559822     -2.15168273946621      3.46091533300142
  H   5.44837566511114     -2.96624667796309      3.38811216696131
