41
Coordinates from ORCA-job penicillin
  S   -0.64054329774406      0.93797070379814     -1.83637568152694
  O   -1.81084270833908     -2.27859164332890      0.41499448517309
  O   -4.91670351850416      1.41258986139739      0.24422845670020
  O   -3.39877571755172      1.61835394374170      1.87692745218376
  O   2.22417238446656     -1.92141438068112     -2.62823061343669
  N   -1.57569640423232      0.06736631210117      0.41601442191297
  N   0.92841534786812     -1.67412874722398     -0.80401477878954
  C   -0.29145298997304      0.53012333348824     -0.09987374422922
  C   -2.32520315785126      1.54997435683701     -1.35120190961287
  C   -2.77091077665179      0.56503600312240     -0.21056986094324
  C   0.28967307949603     -0.88618674544052      0.19777885301291
  C   -1.18535261112157     -1.25945923930399      0.41203715409754
  C   -2.21427734843712      2.98784409589854     -0.84685102225279
  C   -3.24972179977152      1.45884433715286     -2.55667902936865
  C   -3.69808519855029      1.24744552470311      0.77863739817612
  C   1.97200680041402     -1.30475798000878     -1.61633740716336
  C   2.82229534559480     -0.12606310142838     -1.15969325259516
  C   3.24276769210231     -0.13797354750900      0.28604893700951
  C   3.15257923875476      1.01582585238462      1.07255310444800
  C   3.74513788519035     -1.30793282875711      0.87002416268863
  C   3.54323819132286      1.00276658161237      2.41128541762068
  C   4.13241900928808     -1.32535757515944      2.20770075276038
  C   4.03067367780453     -0.17026607932077      2.98411569082137
  H   0.16324355416780      1.36768094036490      0.44938284133082
  H   -3.31600272887953     -0.28592146514922     -0.65295338605180
  H   0.85796633033746     -0.85875154303127      1.14340137543201
  H   -1.60030962888374      3.05856789801538      0.06256774798093
  H   -1.76382028676100      3.62303416348000     -1.62172487157055
  H   -3.21249900211137      3.39162129276594     -0.61217296001579
  H   -2.91997345180357      2.14154654170592     -3.35370751282621
  H   -3.27401166315974      0.43626652205794     -2.96056980763112
  H   -4.27009883432990      1.74392462572840     -2.25958313113608
  H   0.36959152161705     -2.42829842653146     -1.19397509344789
  H   -5.45673689057516      1.87212372814767      0.90622019336707
  H   3.69744271892460     -0.13684223331032     -1.82613146570894
  H   2.27355439947054      0.80464156428180     -1.38607138152416
  H   2.77098525341946      1.94005016762187      0.62798465939111
  H   3.82326003786069     -2.21860207442497      0.26941685403767
  H   3.46357831603690      1.91389465695021      3.00946076212069
  H   4.51705532495412     -2.24849918402025      2.64832249075101
  H   4.33206190614083     -0.18534621272823      4.03421369881454
