41
Coordinates from ORCA-job penicillin
  S   -0.59248935466311      1.16645844380264     -1.66451151264556
  O   -1.93144856353999     -2.53775990981965     -0.62695884419300
  O   -4.77023238938587      1.15437645288560      0.66074576530264
  O   -3.18608579660159      0.73128865957688      2.18447892867806
  O   2.32700381751153     -0.35660137394732     -2.86404859746538
  N   -1.53401670593558     -0.36638077288927      0.19892648116213
  N   0.94037467845998     -1.66032193742589     -1.60893603648693
  C   -0.23809509160801      0.18976373698147     -0.16685960417179
  C   -2.23555131035122      1.65449212888207     -0.94978476056763
  C   -2.70870329989814      0.37802960019152     -0.16319146698760
  C   0.26186272979630     -1.26827239425405     -0.40597842884646
  C   -1.23158963843850     -1.62480781317517     -0.30479977133600
  C   -2.03673144263464      2.85217052217299     -0.02174238999169
  C   -3.19460012644136      1.99127900239471     -2.08245003356910
  C   -3.54843477023575      0.75374138534481      1.04342316552236
  C   2.16983816811729     -1.04384188017623     -1.88281857691264
  C   3.32193778320549     -1.43060811363941     -0.97338828375355
  C   3.35410318927391     -0.55001870360562      0.25816099281840
  C   3.29453887131152      0.84385705751740      0.12341846798574
  C   3.39949185442053     -1.09902763297662      1.54380900498234
  C   3.27252423907517      1.66500948563300      1.24890154055258
  C   3.38007378289982     -0.27782012257449      2.67109811186401
  C   3.31298534286862      1.10705774024320      2.52722134545112
  H   0.27507869981338      0.77650435470223      0.60917243910581
  H   -3.32928116904182     -0.25162512672413     -0.82306950737676
  H   0.81052897460817     -1.61527241554082      0.48404702744409
  H   -1.39303855992753      2.60600919228260      0.83534951180165
  H   -1.57538244950171      3.68142626828165     -0.57534241195805
  H   -3.00532330892428      3.20125349493581      0.37153580769131
  H   -2.85002486204073      2.87588507421683     -2.63828452011977
  H   -3.28637454954250      1.15053081852203     -2.78537871203336
  H   -4.18934701400765      2.21212739562703     -1.66676561053698
  H   0.33436872674286     -1.47474064692345     -2.41069969963154
  H   -5.24958208276147      1.40624938427402      1.46551262681168
  H   3.23102416531073     -2.48769716075146     -0.68874398252060
  H   4.23844540875359     -1.29405875225188     -1.56548120757984
  H   3.25159227117265      1.28402058066612     -0.87699322858931
  H   3.44433341510601     -2.18540713665797      1.66384576450442
  H   3.22108020034589      2.74974066440955      1.12559205241222
  H   3.41356216500130     -0.72468898207355      3.66777634846852
  H   3.29268400168664      1.75077943186256      3.40981180471450
