
     RDKit          3D

 20 20  0  0  0  0  0  0  0  0999 V2000
    2.9028   -1.3876   -0.1673 O   0  0  0  0  0  0  0  0  0  0  0  0
    1.8889   -0.7682    0.0349 C   0  0  0  0  0  0  0  0  0  0  0  0
    0.7028   -1.3555    0.3790 O   0  0  0  0  0  0  0  0  0  0  0  0
   -0.2990   -0.3443    0.5460 C   0  0  2  0  0  0  0  0  0  0  0  0
   -1.4821   -0.7536   -0.3527 C   0  0  1  0  0  0  0  0  0  0  0  0
   -1.7679   -2.1161   -0.1575 O   0  0  0  0  0  0  0  0  0  0  0  0
   -2.7831   -0.0401   -0.0109 C   0  0  0  0  0  0  0  0  0  0  0  0
   -2.6534    1.3458   -0.3049 O   0  0  0  0  0  0  0  0  0  0  0  0
    0.4109    0.9546    0.2274 C   0  0  0  0  0  0  0  0  0  0  0  0
   -0.1649    2.1540    0.3001 O   0  0  0  0  0  0  0  0  0  0  0  0
    1.6955    0.6743   -0.0408 C   0  0  0  0  0  0  0  0  0  0  0  0
    2.7153    1.4956   -0.3578 O   0  0  0  0  0  0  0  0  0  0  0  0
   -0.6203   -0.3714    1.5957 H   0  0  0  0  0  0  0  0  0  0  0  0
   -1.2117   -0.5410   -1.3991 H   0  0  0  0  0  0  0  0  0  0  0  0
   -0.9249   -2.5888   -0.2029 H   0  0  0  0  0  0  0  0  0  0  0  0
   -3.5805   -0.4898   -0.6120 H   0  0  0  0  0  0  0  0  0  0  0  0
   -3.0118   -0.2042    1.0508 H   0  0  0  0  0  0  0  0  0  0  0  0
   -3.4770    1.7942   -0.0827 H   0  0  0  0  0  0  0  0  0  0  0  0
   -1.1312    2.0462    0.1713 H   0  0  0  0  0  0  0  0  0  0  0  0
    3.4936    0.9289   -0.4775 H   0  0  0  0  0  0  0  0  0  0  0  0
  1  2  2  0
  2  3  1  0
  2 11  1  0
  3  4  1  0
  4  5  1  0
  4  9  1  0
  4 13  1  1
  5  6  1  0
  5  7  1  0
  5 14  1  6
  6 15  1  0
  7  8  1  0
  7 16  1  0
  7 17  1  0
  8 18  1  0
  9 10  1  0
  9 11  2  0
 10 19  1  0
 11 12  1  0
 12 20  1  0
M  END
